@<TRIPOS>MOLECULE
Structure10
  373   390     1     0     0
SMALL
gas


@<TRIPOS>ATOM
      1 C1         132.1100   150.2650   124.0520 c3         1 UNK      -0.025929
      2 O1         132.2460   149.3060   121.8230 oh         1 UNK      -0.392562
      3 C2         132.9640   150.0470   122.7990 c3         1 UNK       0.059375
      4 N1         140.3700   154.6910   129.2990 n          1 UNK      -0.312618
      5 C3         134.3550   149.4360   123.0970 c3         1 UNK      -0.006011
      6 O3         138.2940   153.9550   129.7570 o          1 UNK      -0.277065
      7 C4         135.0550   150.4010   124.1190 c3         1 UNK      -0.028080
      8 C5         134.2620   150.8220   125.4110 c3         1 UNK      -0.025376
      9 C6         132.8150   151.2430   125.0070 c3         1 UNK      -0.044798
     10 C7         136.5220   150.0690   124.4630 c3         1 UNK      -0.048748
     11 C8         137.2450   151.3470   124.8940 c3         1 UNK      -0.046426
     12 C9         136.5700   152.1040   126.0810 c3         1 UNK      -0.019794
     13 C10        134.9940   152.0950   125.9990 c3         1 UNK      -0.026010
     14 C11        137.0200   153.6400   126.1160 c3         1 UNK      -0.005618
     15 C12        136.3300   154.3510   127.3070 c2         1 UNK      -0.063524
     16 C13        135.1610   153.9000   127.8110 c2         1 UNK      -0.084126
     17 C14        134.3930   152.6890   127.3020 c3         1 UNK      -0.030837
     18 C15        138.5700   153.7510   126.2090 c3         1 UNK      -0.042519
     19 C16        139.0900   155.1390   126.6280 c3         1 UNK      -0.037522
     20 C17        138.5170   155.6190   127.9810 c3         1 UNK       0.053653
     21 C18        136.9530   155.6390   127.8730 c3         1 UNK      -0.004977
     22 C19        139.0330   157.0410   128.3580 c3         1 UNK      -0.037860
     23 C20        138.4370   158.2120   127.5660 c3         1 UNK      -0.047062
     24 C21        136.8990   158.2330   127.5790 c3         1 UNK      -0.034782
     25 C22        136.3950   156.8610   127.0950 c3         1 UNK      -0.040466
     26 C23        139.0430   154.6690   129.0950 c          1 UNK       0.218543
     27 C24        137.0380   151.3500   127.3680 c3         1 UNK      -0.058513
     28 C25        134.1230   149.6810   126.4600 c3         1 UNK      -0.059057
     29 C26        136.3480   158.5600   128.9780 c3         1 UNK      -0.059887
     30 C27        136.5820   154.4170   124.8290 c3         1 UNK      -0.055324
     31 C28        135.1500   149.4210   121.7630 c3         1 UNK      -0.057146
     32 C29        134.2620   147.9700   123.5790 c3         1 UNK      -0.057146
     33 C30        136.4030   159.3280   126.6160 c3         1 UNK      -0.059887
     34 C39        141.0810   153.9650   130.3380 c3         1 UNK       0.034496
     35 N2         166.4540   179.5550   131.1570 n          1 UNK      -0.312618
     36 C43        142.5900   153.8960   130.0360 c3         1 UNK       0.062212
     37 O13        143.1990   155.1900   130.0810 os         1 UNK      -0.377436
     38 C46        143.6640   155.6730   128.8220 c3         1 UNK       0.070077
     39 C49        145.0480   155.0970   128.4650 c3         1 UNK       0.070114
     40 O2         146.0670   155.6900   129.2750 os         1 UNK      -0.376668
     41 C52        147.3780   155.2570   128.9060 c3         1 UNK       0.070114
     42 C55        148.4630   156.2670   129.3290 c3         1 UNK       0.070114
     43 O16        148.7490   156.2700   130.7360 os         1 UNK      -0.376668
     44 C58        150.0330   156.8640   130.9690 c3         1 UNK       0.070114
     45 C61        150.2750   157.2250   132.4530 c3         1 UNK       0.070079
     46 O4         151.4030   156.5400   133.0090 os         1 UNK      -0.377345
     47 C64        152.6720   157.0700   132.6060 c3         1 UNK       0.064459
     48 C67        153.1670   158.2180   133.5120 c3         1 UNK       0.059059
     49 N3         154.5600   158.5450   133.2450 na         1 UNK      -0.210020
     50 N4         155.5410   157.7060   133.6550 nc         1 UNK      -0.076040
     51 N5         156.6680   158.2180   133.2740 nd         1 UNK      -0.136209
     52 C70        155.0880   159.6420   132.5970 cc         1 UNK       0.041051
     53 C73        156.4380   159.4350   132.6250 cd         1 UNK       0.094309
     54 C76        157.5280   160.3070   132.0380 c3         1 UNK       0.044816
     55 C79        159.5440   158.9320   132.3150 c3         1 UNK       0.044816
     56 C82        161.0290   158.8180   132.1160 cc         1 UNK       0.094309
     57 C85        161.7510   157.7560   131.6560 cd         1 UNK       0.041051
     58 N6         161.9060   159.8790   132.3520 nc         1 UNK      -0.136209
     59 N7         163.1100   159.5240   132.0360 nd         1 UNK      -0.076040
     60 N8         163.0370   158.2500   131.5900 na         1 UNK      -0.210020
     61 C88        164.2260   157.5980   131.0930 c3         1 UNK       0.059059
     62 C91        164.9360   156.7800   132.1730 c3         1 UNK       0.064459
     63 O5         166.0590   156.1890   131.5470 os         1 UNK      -0.377345
     64 C94        166.8050   155.3390   132.3980 c3         1 UNK       0.070079
     65 C97        168.0440   154.9070   131.6090 c3         1 UNK       0.070114
     66 O6         168.8650   154.0380   132.3800 os         1 UNK      -0.376668
     67 C100       169.9230   153.5000   131.6000 c3         1 UNK       0.070114
     68 C103       170.6860   152.4350   132.4050 c3         1 UNK       0.070114
     69 O7         171.2610   151.4480   131.5470 os         1 UNK      -0.376668
     70 C106       172.4730   151.8810   130.9340 c3         1 UNK       0.070114
     71 C109       172.8520   150.9400   129.7780 c3         1 UNK       0.070077
     72 O8         173.2520   149.6600   130.2680 os         1 UNK      -0.377436
     73 C112       173.7860   148.8250   129.2440 c3         1 UNK       0.062212
     74 N9         158.9330   160.2540   132.4510 n3         1 UNK      -0.285503
     75 C115       159.2410   160.9110   133.7270 c3         1 UNK       0.044816
     76 C118       159.3350   162.4190   133.8040 cc         1 UNK       0.094309
     77 C121       159.9140   163.2090   134.7620 cd         1 UNK       0.041051
     78 N10        158.8640   163.2540   132.7910 nc         1 UNK      -0.136209
     79 N11        159.1740   164.4780   133.0610 nd         1 UNK      -0.076040
     80 N12        159.8440   164.4870   134.2380 na         1 UNK      -0.210020
     81 C124       160.3690   165.7390   134.7900 c3         1 UNK       0.059059
     82 C127       160.5090   166.8680   133.7400 c3         1 UNK       0.064459
     83 O9         161.0000   168.0910   134.2940 os         1 UNK      -0.377345
     84 C31        161.3480   169.0390   133.2930 c3         1 UNK       0.070079
     85 C32        162.1350   170.2090   133.9170 c3         1 UNK       0.070114
     86 O10        161.7150   171.4420   133.3340 os         1 UNK      -0.376668
     87 C33        162.6480   172.5070   133.4920 c3         1 UNK       0.070114
     88 C34        162.1240   173.7560   132.7560 c3         1 UNK       0.070114
     89 O11        163.0480   174.8450   132.8440 os         1 UNK      -0.376668
     90 C35        162.5310   176.0590   132.2780 c3         1 UNK       0.070114
     91 C36        163.0930   177.3320   132.9510 c3         1 UNK       0.070077
     92 O12        164.3510   177.7590   132.4250 os         1 UNK      -0.377436
     93 C37        164.6400   179.1060   132.8180 c3         1 UNK       0.062212
     94 C38        166.1060   179.4920   132.5710 c3         1 UNK       0.034496
     95 H1         136.5730   155.7310   128.8920 hc         1 UNK       0.036011
     96 H2         134.7520   152.8410   125.2520 hc         1 UNK       0.031750
     97 H3         135.1250   151.3280   123.5460 hc         1 UNK       0.031487
     98 H4         131.1440   150.6900   123.7770 hc         1 UNK       0.029339
     99 H5         131.8840   149.3260   124.5550 hc         1 UNK       0.029339
    100 H6         133.1440   151.0320   122.3780 h1         1 UNK       0.060617
    101 H7         132.2000   151.3750   125.8990 hc         1 UNK       0.027329
    102 H8         132.8230   152.2200   124.5220 hc         1 UNK       0.027329
    103 H9         136.6040   149.2990   125.2270 hc         1 UNK       0.027000
    104 H10        137.0620   149.6730   123.6080 hc         1 UNK       0.027000
    105 H11        137.3440   151.9630   124.0070 hc         1 UNK       0.027265
    106 H12        138.2780   151.1000   125.1420 hc         1 UNK       0.027265
    107 H13        134.7040   154.4220   128.6410 ha         1 UNK       0.057578
    108 H14        133.3560   152.9870   127.1500 hc         1 UNK       0.031301
    109 H15        134.3950   151.9670   128.1160 hc         1 UNK       0.031301
    110 H16        138.9780   153.0300   126.9120 hc         1 UNK       0.027597
    111 H17        139.0180   153.4900   125.2500 hc         1 UNK       0.027597
    112 H18        138.8780   155.8710   125.8550 hc         1 UNK       0.027789
    113 H19        140.1780   155.0960   126.6670 hc         1 UNK       0.027789
    114 H20        140.1170   157.0930   128.2510 hc         1 UNK       0.027777
    115 H21        138.8290   157.2120   129.4120 hc         1 UNK       0.027777
    116 H22        138.8320   159.1520   127.9520 hc         1 UNK       0.027237
    117 H23        138.8000   158.1420   126.5440 hc         1 UNK       0.027237
    118 H24        135.3050   156.8410   127.1290 hc         1 UNK       0.027849
    119 H25        136.6560   156.7680   126.0460 hc         1 UNK       0.027849
    120 H26        136.5640   150.3820   127.4780 hc         1 UNK       0.023644
    121 H27        138.1070   151.1460   127.3770 hc         1 UNK       0.023644
    122 H28        136.8360   151.8950   128.2890 hc         1 UNK       0.023644
    123 H29        133.4020   148.9260   126.1660 hc         1 UNK       0.023623
    124 H30        135.0450   149.1480   126.6670 hc         1 UNK       0.023623
    125 H31        133.7490   150.0460   127.4140 hc         1 UNK       0.023623
    126 H32        132.1120   148.4430   122.2040 ho         1 UNK       0.210474
    127 H33        135.2570   158.5630   128.9700 hc         1 UNK       0.023592
    128 H34        136.6630   157.8440   129.7370 hc         1 UNK       0.023592
    129 H35        136.6740   159.5450   129.3100 hc         1 UNK       0.023592
    130 H36        136.5420   153.8220   123.9240 hc         1 UNK       0.023951
    131 H37        135.5920   154.8580   124.9420 hc         1 UNK       0.023951
    132 H38        137.2520   155.2380   124.5880 hc         1 UNK       0.023951
    133 H39        134.6190   148.8870   120.9750 hc         1 UNK       0.023698
    134 H40        135.3550   150.4270   121.3990 hc         1 UNK       0.023698
    135 H41        136.1070   148.9080   121.8600 hc         1 UNK       0.023698
    136 H42        133.9510   147.3040   122.7740 hc         1 UNK       0.023698
    137 H43        135.2300   147.6080   123.9290 hc         1 UNK       0.023698
    138 H44        133.5530   147.8180   124.3870 hc         1 UNK       0.023698
    139 H45        135.3180   159.3150   126.5310 hc         1 UNK       0.023592
    140 H46        136.6990   160.3220   126.9530 hc         1 UNK       0.023592
    141 H47        136.7970   159.1970   125.6120 hc         1 UNK       0.023592
    142 H71        140.8990   155.2980   128.6940 hn         1 UNK       0.149439
    143 H76        140.6760   152.9540   130.4140 h1         1 UNK       0.049086
    144 H79        140.9000   154.4490   131.2990 h1         1 UNK       0.049086
    145 H82        142.7650   153.3800   129.0900 h1         1 UNK       0.058323
    146 H85        143.0700   153.2850   130.8020 h1         1 UNK       0.058323
    147 H88        143.7300   156.7600   128.8700 h1         1 UNK       0.059109
    148 H91        142.9380   155.4510   128.0370 h1         1 UNK       0.059109
    149 H94        145.2450   155.3280   127.4160 h1         1 UNK       0.059110
    150 H97        145.0610   154.0100   128.5610 h1         1 UNK       0.059110
    151 H100       147.4400   155.1670   127.8190 h1         1 UNK       0.059110
    152 H103       147.5810   154.2670   129.3130 h1         1 UNK       0.059110
    153 H106       148.1780   157.2710   129.0260 h1         1 UNK       0.059110
    154 H109       149.3660   156.0210   128.7670 h1         1 UNK       0.059110
    155 H112       150.1610   157.7650   130.3690 h1         1 UNK       0.059110
    156 H115       150.7980   156.1670   130.6240 h1         1 UNK       0.059110
    157 H118       149.3990   156.9420   133.0370 h1         1 UNK       0.059109
    158 H121       150.3780   158.3050   132.5750 h1         1 UNK       0.059109
    159 H124       152.6720   157.3780   131.5600 h1         1 UNK       0.058413
    160 H127       153.3830   156.2470   132.6700 h1         1 UNK       0.058413
    161 H130       153.0830   157.9450   134.5650 h1         1 UNK       0.051515
    162 H133       152.5640   159.1140   133.3690 h1         1 UNK       0.051515
    163 H136       154.5070   160.4590   132.1950 h4         1 UNK       0.083083
    164 H139       159.0700   158.4410   131.4640 h1         1 UNK       0.049925
    165 H142       159.2630   158.3330   133.1810 h1         1 UNK       0.049925
    166 H145       161.4820   156.7540   131.3580 h4         1 UNK       0.083083
    167 H148       164.8980   158.3540   130.6860 h1         1 UNK       0.051515
    168 H151       163.9420   156.9570   130.2590 h1         1 UNK       0.051515
    169 H154       164.2710   156.0130   132.5730 h1         1 UNK       0.058413
    170 H157       165.2520   157.4210   132.9980 h1         1 UNK       0.058413
    171 H160       166.2090   154.4710   132.6830 h1         1 UNK       0.059109
    172 H163       167.0940   155.8580   133.3120 h1         1 UNK       0.059109
    173 H166       168.6180   155.7850   131.3090 h1         1 UNK       0.059110
    174 H169       167.7140   154.4080   130.6950 h1         1 UNK       0.059110
    175 H172       170.5950   154.2930   131.2640 h1         1 UNK       0.059110
    176 H175       169.5040   153.0280   130.7080 h1         1 UNK       0.059110
    177 H178       169.9750   151.9110   133.0460 h1         1 UNK       0.059110
    178 H181       171.4250   152.8870   133.0700 h1         1 UNK       0.059110
    179 H184       173.2740   151.9290   131.6740 h1         1 UNK       0.059110
    180 H187       172.3550   152.8870   130.5290 h1         1 UNK       0.059110
    181 H190       172.0220   150.8430   129.0750 h1         1 UNK       0.059109
    182 H193       173.6790   151.3970   129.2310 h1         1 UNK       0.059109
    183 H196       174.4580   149.3790   128.5850 h1         1 UNK       0.058323
    184 H199       172.9560   148.4760   128.6270 h1         1 UNK       0.058323
    185 H202       174.0500   147.2580   130.7340 h1         1 UNK       0.049086
    186 H205       175.5600   147.9420   130.1610 h1         1 UNK       0.049086
    187 H208       157.2100   161.3460   132.1220 h1         1 UNK       0.049925
    188 H211       157.5390   160.1310   130.9620 h1         1 UNK       0.049925
    189 H48        160.1980   160.5300   134.0810 h1         1 UNK       0.049925
    190 H49        158.5400   160.5420   134.4730 h1         1 UNK       0.049925
    191 H50        160.4110   162.9770   135.6930 h4         1 UNK       0.083083
    192 H51        161.3430   165.5290   135.2350 h1         1 UNK       0.051515
    193 H52        159.7290   166.0500   135.6120 h1         1 UNK       0.051515
    194 H53        159.5470   167.0740   133.2720 h1         1 UNK       0.058413
    195 H54        161.1790   166.5160   132.9530 h1         1 UNK       0.058413
    196 H55        160.4290   169.3940   132.8250 h1         1 UNK       0.059109
    197 H56        161.9490   168.5870   132.5020 h1         1 UNK       0.059109
    198 H57        163.2030   170.0340   133.7800 h1         1 UNK       0.059110
    199 H58        161.9590   170.2580   134.9930 h1         1 UNK       0.059110
    200 H59        163.6160   172.2180   133.0800 h1         1 UNK       0.059110
    201 H60        162.7950   172.7220   134.5520 h1         1 UNK       0.059110
    202 H61        161.1650   174.0360   133.1960 h1         1 UNK       0.059110
    203 H62        161.9370   173.5210   131.7080 h1         1 UNK       0.059110
    204 H63        161.4490   176.0920   132.4140 h1         1 UNK       0.059110
    205 H64        162.6970   176.0800   131.2010 h1         1 UNK       0.059110
    206 H65        163.1620   177.1920   134.0310 h1         1 UNK       0.059109
    207 H66        162.3640   178.1290   132.7890 h1         1 UNK       0.059109
    208 H67        163.9750   179.8030   132.3030 h1         1 UNK       0.058323
    209 H68        164.4470   179.2200   133.8870 h1         1 UNK       0.058323
    210 H69        166.7700   178.7810   133.0610 h1         1 UNK       0.049086
    211 H70        166.3070   180.4620   133.0360 h1         1 UNK       0.049086
    212 C40        166.0300   188.3590   124.0320 c3         1 UNK      -0.025929
    213 O14        164.8530   188.6890   121.9450 oh         1 UNK      -0.392562
    214 C44        165.2030   187.7080   122.9150 c3         1 UNK       0.059375
    215 C47        163.9430   186.9660   123.4410 c3         1 UNK      -0.006011
    216 O17        165.9480   181.7060   130.8110 o          1 UNK      -0.277065
    217 C50        164.4090   185.9620   124.5590 c3         1 UNK      -0.028080
    218 C53        165.3080   186.5100   125.7250 c3         1 UNK      -0.025376
    219 C56        166.4730   187.3210   125.0810 c3         1 UNK      -0.044798
    220 C59        163.3140   185.0270   125.1190 c3         1 UNK      -0.048748
    221 C62        163.9710   183.7660   125.6850 c3         1 UNK      -0.046426
    222 C65        164.9970   184.0290   126.8290 c3         1 UNK      -0.019794
    223 C68        165.9250   185.2600   126.4860 c3         1 UNK      -0.026010
    224 C71        165.9310   182.7460   127.0770 c3         1 UNK      -0.005618
    225 C74        167.0850   183.0830   128.0560 c2         1 UNK      -0.063524
    226 C77        167.4360   184.3570   128.3300 c2         1 UNK      -0.084126
    227 C80        166.8200   185.5940   127.7060 c3         1 UNK      -0.030837
    228 C83        165.1180   181.5660   127.6710 c3         1 UNK      -0.042519
    229 C86        165.9810   180.3310   127.9780 c3         1 UNK      -0.037522
    230 C89        167.1280   180.5870   128.9890 c3         1 UNK       0.053653
    231 C92        167.9160   181.9340   128.6690 c3         1 UNK      -0.004977
    232 C95        168.0850   179.3440   128.9540 c3         1 UNK      -0.037860
    233 C98        169.2100   179.3920   127.9120 c3         1 UNK      -0.047062
    234 C101       170.1250   180.6060   128.1170 c3         1 UNK      -0.034782
    235 C104       169.2580   181.8480   127.8760 c3         1 UNK      -0.040466
    236 C107       166.4590   180.6680   130.4030 c          1 UNK       0.218543
    237 C110       164.1570   184.3340   128.1060 c3         1 UNK      -0.058513
    238 C113       164.5560   187.4680   126.6950 c3         1 UNK      -0.059057
    239 C116       170.7640   180.6320   129.5160 c3         1 UNK      -0.059887
    240 C119       166.5450   182.2190   125.7420 c3         1 UNK      -0.055324
    241 C122       163.3500   186.1750   122.2460 c3         1 UNK      -0.057146
    242 C125       162.8460   187.9500   123.9150 c3         1 UNK      -0.057146
    243 C128       171.2840   180.5670   127.1010 c3         1 UNK      -0.059887
    244 H72        168.2340   182.3090   129.6440 hc         1 UNK       0.036011
    245 H77        166.6290   184.8770   125.7550 hc         1 UNK       0.031750
    246 H80        165.0770   185.2980   124.0070 hc         1 UNK       0.031487
    247 H83        166.9230   188.8210   123.6070 hc         1 UNK       0.029339
    248 H86        165.4820   189.1720   124.5060 hc         1 UNK       0.029339
    249 H89        165.8460   186.9740   122.4260 h1         1 UNK       0.060617
    250 H92        167.0510   187.8290   125.8530 hc         1 UNK       0.027329
    251 H95        167.1740   186.6440   124.5920 hc         1 UNK       0.027329
    252 H98        162.6920   185.5140   125.8660 hc         1 UNK       0.027000
    253 H101       162.6250   184.7030   124.3440 hc         1 UNK       0.027000
    254 H104       164.4300   183.2810   124.8300 hc         1 UNK       0.027265
    255 H107       163.1960   183.0750   126.0170 hc         1 UNK       0.027265
    256 H110       168.2380   184.5460   129.0280 ha         1 UNK       0.057578
    257 H113       167.6310   186.2610   127.4180 hc         1 UNK       0.031301
    258 H116       166.2680   186.0980   128.4980 hc         1 UNK       0.031301
    259 H119       164.6170   181.8570   128.5910 hc         1 UNK       0.027597
    260 H122       164.3240   181.2740   126.9840 hc         1 UNK       0.027597
    261 H125       166.3780   179.9160   127.0590 hc         1 UNK       0.027789
    262 H128       165.3220   179.5470   128.3540 hc         1 UNK       0.027789
    263 H131       167.5030   178.4390   128.7810 hc         1 UNK       0.027777
    264 H134       168.5670   179.1980   129.9160 hc         1 UNK       0.027777
    265 H137       169.7920   178.4720   127.9470 hc         1 UNK       0.027237
    266 H140       168.7690   179.4280   126.9170 hc         1 UNK       0.027237
    267 H143       169.8480   182.7390   128.0920 hc         1 UNK       0.027849
    268 H146       169.0640   181.9160   126.8100 hc         1 UNK       0.027849
    269 H149       163.6740   185.3030   128.0750 hc         1 UNK       0.023644
    270 H152       163.3520   183.6140   128.2520 hc         1 UNK       0.023644
    271 H155       164.7570   184.3140   129.0170 hc         1 UNK       0.023644
    272 H158       164.3990   188.4560   126.2770 hc         1 UNK       0.023623
    273 H161       163.5730   187.1150   126.9930 hc         1 UNK       0.023623
    274 H164       165.1170   187.6600   127.6060 hc         1 UNK       0.023623
    275 H167       164.2090   189.2370   122.3840 ho         1 UNK       0.210474
    276 H170       171.4990   181.4320   129.5990 hc         1 UNK       0.023592
    277 H173       170.0340   180.7960   130.3060 hc         1 UNK       0.023592
    278 H176       171.2780   179.6920   129.7190 hc         1 UNK       0.023592
    279 H179       165.8070   181.7500   125.0930 hc         1 UNK       0.023951
    280 H182       167.0770   182.9630   125.1570 hc         1 UNK       0.023951
    281 H185       167.2610   181.4240   125.9040 hc         1 UNK       0.023951
    282 H188       163.1740   186.8130   121.3800 hc         1 UNK       0.023698
    283 H191       164.0110   185.3690   121.9240 hc         1 UNK       0.023698
    284 H194       162.3840   185.7320   122.4820 hc         1 UNK       0.023698
    285 H197       162.3680   188.4520   123.0740 hc         1 UNK       0.023698
    286 H200       162.0540   187.4310   124.4550 hc         1 UNK       0.023698
    287 H203       163.2180   188.7370   124.5640 hc         1 UNK       0.023698
    288 H206       171.9410   181.4300   127.2130 hc         1 UNK       0.023592
    289 H209       171.8980   179.6750   127.2290 hc         1 UNK       0.023592
    290 H212       170.9280   180.5700   126.0740 hc         1 UNK       0.023592
    291 H73        166.8810   178.7510   130.7380 hn         1 UNK       0.149439
    292 C41        182.6740   141.7150   123.7790 c3         1 UNK      -0.025929
    293 O15        183.1760   142.0890   121.4310 oh         1 UNK      -0.392562
    294 C45        182.2370   142.3630   122.4600 c3         1 UNK       0.059375
    295 N13        174.6340   146.5570   128.8760 n          1 UNK      -0.312618
    296 C48        181.9520   143.8810   122.5900 c3         1 UNK      -0.006011
    297 O18        176.0640   145.1800   129.9350 o          1 UNK      -0.277065
    298 C51        180.8740   144.0470   123.7190 c3         1 UNK      -0.028080
    299 C54        181.1140   143.3320   125.0990 c3         1 UNK      -0.025376
    300 C57        181.5640   141.8620   124.8330 c3         1 UNK      -0.044798
    301 C60        180.3480   145.4810   123.9360 c3         1 UNK      -0.048748
    302 C63        178.9330   145.4190   124.5100 c3         1 UNK      -0.046426
    303 C66        178.8010   144.5790   125.8220 c3         1 UNK      -0.019794
    304 C69        179.7160   143.2930   125.8370 c3         1 UNK      -0.026010
    305 C72        177.3030   144.0580   126.0240 c3         1 UNK      -0.005618
    306 C75        177.2060   143.2380   127.3340 c2         1 UNK      -0.063524
    307 C78        178.2930   142.6290   127.8590 c2         1 UNK      -0.084126
    308 C81        179.6900   142.6510   127.2500 c3         1 UNK      -0.030837
    309 C84        176.3180   145.2540   126.0590 c3         1 UNK      -0.042519
    310 C87        174.9110   144.8930   126.5560 c3         1 UNK      -0.037522
    311 C90        174.8870   144.2910   127.9820 c3         1 UNK       0.053653
    312 C93        175.8230   143.0290   127.9820 c3         1 UNK      -0.004977
    313 C96        173.4390   143.8900   128.4120 c3         1 UNK      -0.037860
    314 C99        172.8650   142.6240   127.7600 c3         1 UNK      -0.047062
    315 C102       173.7860   141.4000   127.9070 c3         1 UNK      -0.034782
    316 C105       175.1630   141.7780   127.3410 c3         1 UNK      -0.040466
    317 C108       175.2870   145.3920   129.0080 c          1 UNK       0.218543
    318 C111       179.2260   145.5520   126.9700 c3         1 UNK      -0.058513
    319 C114       182.2150   143.9940   125.9740 c3         1 UNK      -0.059057
    320 C117       173.9100   140.9390   129.3690 c3         1 UNK      -0.059887
    321 C120       176.8520   143.1120   124.8560 c3         1 UNK      -0.055324
    322 C123       181.3650   144.3570   121.2330 c3         1 UNK      -0.057146
    323 C126       183.2420   144.7010   122.8330 c3         1 UNK      -0.057146
    324 C129       173.2010   140.2280   127.0930 c3         1 UNK      -0.059887
    325 C42        174.5600   147.6370   129.8470 c3         1 UNK       0.034496
    326 H74        176.0140   142.7740   129.0250 hc         1 UNK       0.036011
    327 H78        179.1900   142.5640   125.2330 hc         1 UNK       0.031750
    328 H81        180.0210   143.5130   123.2960 hc         1 UNK       0.031487
    329 H84        182.8640   140.6520   123.6250 hc         1 UNK       0.029339
    330 H87        183.6110   142.1330   124.1430 hc         1 UNK       0.029339
    331 H90        181.3020   141.8830   122.1760 h1         1 UNK       0.060617
    332 H93        181.8920   141.3940   125.7630 hc         1 UNK       0.027329
    333 H96        180.7200   141.2590   124.4960 hc         1 UNK       0.027329
    334 H99        181.0030   146.0700   124.5750 hc         1 UNK       0.027000
    335 H102       180.2890   146.0420   123.0070 hc         1 UNK       0.027000
    336 H105       178.2870   145.0630   123.7150 hc         1 UNK       0.027265
    337 H108       178.5760   146.4360   124.6740 hc         1 UNK       0.027265
    338 H111       178.1890   142.0540   128.7680 ha         1 UNK       0.057578
    339 H114       180.0550   141.6250   127.2100 hc         1 UNK       0.031301
    340 H117       180.3320   143.1860   127.9490 hc         1 UNK       0.031301
    341 H120       176.6890   146.0520   126.6960 hc         1 UNK       0.027597
    342 H123       176.2300   145.6940   125.0660 hc         1 UNK       0.027597
    343 H126       174.4100   144.2240   125.8590 hc         1 UNK       0.027789
    344 H129       174.3350   145.8110   126.5170 hc         1 UNK       0.027789
    345 H132       172.7510   144.7090   128.1990 hc         1 UNK       0.027777
    346 H135       173.4000   143.7570   129.4950 hc         1 UNK       0.027777
    347 H138       171.8820   142.4100   128.1840 hc         1 UNK       0.027237
    348 H141       172.6910   142.8320   126.7050 hc         1 UNK       0.027237
    349 H144       175.8420   140.9280   127.4270 hc         1 UNK       0.027849
    350 H147       175.0300   141.9400   126.2760 hc         1 UNK       0.027849
    351 H150       180.2940   145.7400   126.9750 hc         1 UNK       0.023644
    352 H153       178.7630   146.5330   126.8880 hc         1 UNK       0.023644
    353 H156       178.9710   145.1900   127.9650 hc         1 UNK       0.023644
    354 H159       183.2140   143.8400   125.5810 hc         1 UNK       0.023623
    355 H162       182.1020   145.0660   126.0980 hc         1 UNK       0.023623
    356 H165       182.2480   143.5630   126.9730 hc         1 UNK       0.023623
    357 H168       183.9910   142.4930   121.7160 ho         1 UNK       0.210474
    358 H171       174.6210   140.1180   129.4540 hc         1 UNK       0.023592
    359 H174       174.2500   141.7290   130.0370 hc         1 UNK       0.023592
    360 H177       172.9540   140.5820   129.7450 hc         1 UNK       0.023592
    361 H180       177.3530   143.2770   123.9090 hc         1 UNK       0.023951
    362 H183       177.0380   142.0650   125.0960 hc         1 UNK       0.023951
    363 H186       175.7920   143.1860   124.6230 hc         1 UNK       0.023951
    364 H189       182.0240   144.1230   120.3980 hc         1 UNK       0.023698
    365 H192       180.3970   143.9020   121.0270 hc         1 UNK       0.023698
    366 H195       181.2320   145.4380   121.1980 hc         1 UNK       0.023698
    367 H198       183.8770   144.7170   121.9480 hc         1 UNK       0.023698
    368 H201       183.0110   145.7390   123.0710 hc         1 UNK       0.023698
    369 H204       183.8580   144.3170   123.6400 hc         1 UNK       0.023698
    370 H207       173.8420   139.3490   127.1480 hc         1 UNK       0.023592
    371 H210       172.2160   139.9400   127.4630 hc         1 UNK       0.023592
    372 H213       173.0890   140.4860   126.0410 hc         1 UNK       0.023592
    373 H75        174.0660   146.6350   128.0440 hn         1 UNK       0.149439
@<TRIPOS>BOND
     1     1     3 1   
     2     1     9 1   
     3     1    98 1   
     4     1    99 1   
     5     2     3 1   
     6     2   126 1   
     7     3     5 1   
     8     3   100 1   
     9     4    26 1   
    10     4    34 1   
    11     4   142 1   
    12     5     7 1   
    13     5    31 1   
    14     5    32 1   
    15     6    26 2   
    16     7     8 1   
    17     7    10 1   
    18     7    97 1   
    19     8     9 1   
    20     8    13 1   
    21     8    28 1   
    22     9   101 1   
    23     9   102 1   
    24    10    11 1   
    25    10   103 1   
    26    10   104 1   
    27    11    12 1   
    28    11   105 1   
    29    11   106 1   
    30    12    13 1   
    31    12    14 1   
    32    12    27 1   
    33    13    17 1   
    34    13    96 1   
    35    14    15 1   
    36    14    18 1   
    37    14    30 1   
    38    15    16 2   
    39    15    21 1   
    40    16    17 1   
    41    16   107 1   
    42    17   108 1   
    43    17   109 1   
    44    18    19 1   
    45    18   110 1   
    46    18   111 1   
    47    19    20 1   
    48    19   112 1   
    49    19   113 1   
    50    20    21 1   
    51    20    22 1   
    52    20    26 1   
    53    21    25 1   
    54    21    95 1   
    55    22    23 1   
    56    22   114 1   
    57    22   115 1   
    58    23    24 1   
    59    23   116 1   
    60    23   117 1   
    61    24    25 1   
    62    24    29 1   
    63    24    33 1   
    64    25   118 1   
    65    25   119 1   
    66    27   120 1   
    67    27   121 1   
    68    27   122 1   
    69    28   123 1   
    70    28   124 1   
    71    28   125 1   
    72    29   127 1   
    73    29   128 1   
    74    29   129 1   
    75    30   130 1   
    76    30   131 1   
    77    30   132 1   
    78    31   133 1   
    79    31   134 1   
    80    31   135 1   
    81    32   136 1   
    82    32   137 1   
    83    32   138 1   
    84    33   139 1   
    85    33   140 1   
    86    33   141 1   
    87    34    36 1   
    88    34   143 1   
    89    34   144 1   
    90    35    94 1   
    91    35   236 1   
    92    35   291 1   
    93    36    37 1   
    94    36   145 1   
    95    36   146 1   
    96    37    38 1   
    97    38    39 1   
    98    38   147 1   
    99    38   148 1   
   100    39    40 1   
   101    39   149 1   
   102    39   150 1   
   103    40    41 1   
   104    41    42 1   
   105    41   151 1   
   106    41   152 1   
   107    42    43 1   
   108    42   153 1   
   109    42   154 1   
   110    43    44 1   
   111    44    45 1   
   112    44   155 1   
   113    44   156 1   
   114    45    46 1   
   115    45   157 1   
   116    45   158 1   
   117    46    47 1   
   118    47    48 1   
   119    47   159 1   
   120    47   160 1   
   121    48    49 1   
   122    48   161 1   
   123    48   162 1   
   124    49    50 1   
   125    49    52 1   
   126    50    51 2   
   127    51    53 1   
   128    52    53 2   
   129    52   163 1   
   130    53    54 1   
   131    54    74 1   
   132    54   187 1   
   133    54   188 1   
   134    55    56 1   
   135    55    74 1   
   136    55   164 1   
   137    55   165 1   
   138    56    57 2   
   139    56    58 1   
   140    57    60 1   
   141    57   166 1   
   142    58    59 2   
   143    59    60 1   
   144    60    61 1   
   145    61    62 1   
   146    61   167 1   
   147    61   168 1   
   148    62    63 1   
   149    62   169 1   
   150    62   170 1   
   151    63    64 1   
   152    64    65 1   
   153    64   171 1   
   154    64   172 1   
   155    65    66 1   
   156    65   173 1   
   157    65   174 1   
   158    66    67 1   
   159    67    68 1   
   160    67   175 1   
   161    67   176 1   
   162    68    69 1   
   163    68   177 1   
   164    68   178 1   
   165    69    70 1   
   166    70    71 1   
   167    70   179 1   
   168    70   180 1   
   169    71    72 1   
   170    71   181 1   
   171    71   182 1   
   172    72    73 1   
   173    73   183 1   
   174    73   184 1   
   175    73   325 1   
   176    74    75 1   
   177    75    76 1   
   178    75   189 1   
   179    75   190 1   
   180    76    77 2   
   181    76    78 1   
   182    77    80 1   
   183    77   191 1   
   184    78    79 2   
   185    79    80 1   
   186    80    81 1   
   187    81    82 1   
   188    81   192 1   
   189    81   193 1   
   190    82    83 1   
   191    82   194 1   
   192    82   195 1   
   193    83    84 1   
   194    84    85 1   
   195    84   196 1   
   196    84   197 1   
   197    85    86 1   
   198    85   198 1   
   199    85   199 1   
   200    86    87 1   
   201    87    88 1   
   202    87   200 1   
   203    87   201 1   
   204    88    89 1   
   205    88   202 1   
   206    88   203 1   
   207    89    90 1   
   208    90    91 1   
   209    90   204 1   
   210    90   205 1   
   211    91    92 1   
   212    91   206 1   
   213    91   207 1   
   214    92    93 1   
   215    93    94 1   
   216    93   208 1   
   217    93   209 1   
   218    94   210 1   
   219    94   211 1   
   220   185   325 1   
   221   186   325 1   
   222   212   214 1   
   223   212   219 1   
   224   212   247 1   
   225   212   248 1   
   226   213   214 1   
   227   213   275 1   
   228   214   215 1   
   229   214   249 1   
   230   215   217 1   
   231   215   241 1   
   232   215   242 1   
   233   216   236 2   
   234   217   218 1   
   235   217   220 1   
   236   217   246 1   
   237   218   219 1   
   238   218   223 1   
   239   218   238 1   
   240   219   250 1   
   241   219   251 1   
   242   220   221 1   
   243   220   252 1   
   244   220   253 1   
   245   221   222 1   
   246   221   254 1   
   247   221   255 1   
   248   222   223 1   
   249   222   224 1   
   250   222   237 1   
   251   223   227 1   
   252   223   245 1   
   253   224   225 1   
   254   224   228 1   
   255   224   240 1   
   256   225   226 2   
   257   225   231 1   
   258   226   227 1   
   259   226   256 1   
   260   227   257 1   
   261   227   258 1   
   262   228   229 1   
   263   228   259 1   
   264   228   260 1   
   265   229   230 1   
   266   229   261 1   
   267   229   262 1   
   268   230   231 1   
   269   230   232 1   
   270   230   236 1   
   271   231   235 1   
   272   231   244 1   
   273   232   233 1   
   274   232   263 1   
   275   232   264 1   
   276   233   234 1   
   277   233   265 1   
   278   233   266 1   
   279   234   235 1   
   280   234   239 1   
   281   234   243 1   
   282   235   267 1   
   283   235   268 1   
   284   237   269 1   
   285   237   270 1   
   286   237   271 1   
   287   238   272 1   
   288   238   273 1   
   289   238   274 1   
   290   239   276 1   
   291   239   277 1   
   292   239   278 1   
   293   240   279 1   
   294   240   280 1   
   295   240   281 1   
   296   241   282 1   
   297   241   283 1   
   298   241   284 1   
   299   242   285 1   
   300   242   286 1   
   301   242   287 1   
   302   243   288 1   
   303   243   289 1   
   304   243   290 1   
   305   292   294 1   
   306   292   300 1   
   307   292   329 1   
   308   292   330 1   
   309   293   294 1   
   310   293   357 1   
   311   294   296 1   
   312   294   331 1   
   313   295   317 1   
   314   295   325 1   
   315   295   373 1   
   316   296   298 1   
   317   296   322 1   
   318   296   323 1   
   319   297   317 2   
   320   298   299 1   
   321   298   301 1   
   322   298   328 1   
   323   299   300 1   
   324   299   304 1   
   325   299   319 1   
   326   300   332 1   
   327   300   333 1   
   328   301   302 1   
   329   301   334 1   
   330   301   335 1   
   331   302   303 1   
   332   302   336 1   
   333   302   337 1   
   334   303   304 1   
   335   303   305 1   
   336   303   318 1   
   337   304   308 1   
   338   304   327 1   
   339   305   306 1   
   340   305   309 1   
   341   305   321 1   
   342   306   307 2   
   343   306   312 1   
   344   307   308 1   
   345   307   338 1   
   346   308   339 1   
   347   308   340 1   
   348   309   310 1   
   349   309   341 1   
   350   309   342 1   
   351   310   311 1   
   352   310   343 1   
   353   310   344 1   
   354   311   312 1   
   355   311   313 1   
   356   311   317 1   
   357   312   316 1   
   358   312   326 1   
   359   313   314 1   
   360   313   345 1   
   361   313   346 1   
   362   314   315 1   
   363   314   347 1   
   364   314   348 1   
   365   315   316 1   
   366   315   320 1   
   367   315   324 1   
   368   316   349 1   
   369   316   350 1   
   370   318   351 1   
   371   318   352 1   
   372   318   353 1   
   373   319   354 1   
   374   319   355 1   
   375   319   356 1   
   376   320   358 1   
   377   320   359 1   
   378   320   360 1   
   379   321   361 1   
   380   321   362 1   
   381   321   363 1   
   382   322   364 1   
   383   322   365 1   
   384   322   366 1   
   385   323   367 1   
   386   323   368 1   
   387   323   369 1   
   388   324   370 1   
   389   324   371 1   
   390   324   372 1   
@<TRIPOS>SUBSTRUCTURE
     1 UNK         1 TEMP              0 ****  ****    0 ROOT
