@<TRIPOS>MOLECULE
18d.pdb
 405 423 0 0 0
SMALL
GASTEIGER

@<TRIPOS>ATOM
      1  C1       132.9950  149.8310  123.7640 C.3   999  UNK999     -0.0258
      2  O1       133.0940  149.1660  121.4560 O.3   999  UNK999     -0.3912
      3  C2       133.7980  149.8730  122.4630 C.3   999  UNK999      0.0606
      4  N1       138.6750  154.0570  130.5960 N.am  999  UNK999     -0.3126
      5  C3       135.2570  149.3650  122.6170 C.3   999  UNK999     -0.0056
      6  O3       140.4870  153.5660  129.3740 O.2   999  UNK999     -0.2752
      7  C4       135.9250  150.2170  123.7560 C.3   999  UNK999     -0.0278
      8  C5       135.1500  150.3670  125.1140 C.3   999  UNK999     -0.0250
      9  C6       133.6610  150.7220  124.8190 C.3   999  UNK999     -0.0447
     10  C7       137.4230  149.9400  124.0200 C.3   999  UNK999     -0.0486
     11  C8       138.0810  151.1660  124.6650 C.3   999  UNK999     -0.0463
     12  C9       137.3660  151.7100  125.9490 C.3   999  UNK999     -0.0194
     13  C10      135.7950  151.5960  125.8660 C.3   999  UNK999     -0.0257
     14  C11      137.7000  153.2580  126.2010 C.3   999  UNK999     -0.0051
     15  C12      136.9130  153.7770  127.4330 C.2   999  UNK999     -0.0629
     16  C13      135.7970  153.1620  127.8750 C.2   999  UNK999     -0.0836
     17  C14      135.1620  151.9430  127.2370 C.3   999  UNK999     -0.0306
     18  C15      139.2320  153.4640  126.4080 C.3   999  UNK999     -0.0424
     19  C16      139.6300  154.8270  127.0140 C.3   999  UNK999     -0.0377
     20  C17      138.9260  155.1350  128.3620 C.3   999  UNK999      0.0535
     21  C18      137.3790  155.0670  128.1230 C.3   999  UNK999     -0.0050
     22  C19      139.3450  156.5490  128.8590 C.3   999  UNK999     -0.0380
     23  C20      138.7040  157.7360  128.1130 C.3   999  UNK999     -0.0469
     24  C21      137.1660  157.6550  128.0550 C.3   999  UNK999     -0.0343
     25  C22      136.7960  156.3130  127.4020 C.3   999  UNK999     -0.0404
     26  C23      139.4100  154.1530  129.4770 C.2   999  UNK999      0.2198
     27  C24      137.8980  150.8270  127.1230 C.3   999  UNK999     -0.0585
     28  C25      135.1440  149.0740  125.9810 C.3   999  UNK999     -0.0590
     29  C26      136.5310  157.7770  129.4510 C.3   999  UNK999     -0.0598
     30  C27      137.2640  154.1550  124.9930 C.3   999  UNK999     -0.0553
     31  C28      135.9820  149.6340  121.2720 C.3   999  UNK999     -0.0572
     32  C29      135.3210  147.8390  122.8630 C.3   999  UNK999     -0.0572
     33  C30      136.6220  158.8190  127.2050 C.3   999  UNK999     -0.0598
     34  C1       139.1210  153.4230  131.8350 C.3   999  UNK999      0.0350
     35  C2       140.0160  154.3830  132.6350 C.3   999  UNK999      0.0633
     36  O1       140.4110  153.8120  133.8770 O.3   999  UNK999     -0.3760
     37  C3       141.1850  154.7360  134.6330 C.3   999  UNK999      0.0711
     38  C4       141.5780  154.2240  136.0280 C.3   999  UNK999      0.0711
     39  O2       142.8760  153.6280  136.0040 O.3   999  UNK999     -0.3752
     40  C5       143.6180  153.9180  137.1870 C.3   999  UNK999      0.0711
     41  C6       144.8950  153.0510  137.2650 C.3   999  UNK999      0.0711
     42  O3       146.0840  153.7760  137.5880 O.3   999  UNK999     -0.3752
     43  C7       146.0900  154.3130  138.9090 C.3   999  UNK999      0.0711
     44  C8       147.1750  155.3950  139.0240 C.3   999  UNK999      0.0711
     45  O4       148.4850  154.8350  138.8910 O.3   999  UNK999     -0.3752
     46  C9       149.5150  155.7930  139.1610 C.3   999  UNK999      0.0711
     47  C10      149.9510  155.7300  140.6390 C.3   999  UNK999      0.0711
     48  O5       150.8630  154.6460  140.8430 O.3   999  UNK999     -0.3757
     49  C11      152.1860  155.0370  141.2470 C.3   999  UNK999      0.0673
     50  C12      152.9030  155.7760  140.1100 C.3   999  UNK999      0.0665
     51  N2       154.2880  156.1580  140.3490 N.ar  999  UNK999     -0.2491
     52  N3       155.2320  155.5780  139.5960 N.ar  999  UNK999     -0.0653
     53  N4       156.2480  156.3670  139.5820 N.ar  999  UNK999     -0.1310
     54  C13      154.8260  157.2120  141.0680 C.ar  999  UNK999      0.0521
     55  C14      156.0250  157.4360  140.4350 C.ar  999  UNK999      0.1199
     56  C15      156.9730  158.6170  140.4280 C.3   999  UNK999      0.1346
     57  O6       158.1360  158.3410  139.6380 O.3   999  UNK999     -0.4855
     58  C16      158.9720  159.3460  139.1900 C.ar  999  UNK999      0.1280
     59  C17      158.5620  160.6640  138.8810 C.ar  999  UNK999      0.0220
     60  C18      160.3100  158.9890  138.9280 C.ar  999  UNK999      0.0220
     61  C19      161.2300  159.9100  138.3900 C.ar  999  UNK999      0.1280
     62  C20      160.8170  161.2270  138.1240 C.ar  999  UNK999      0.0220
     63  C21      159.4730  161.5980  138.3340 C.ar  999  UNK999      0.1280
     64  O7       162.4980  159.5080  138.0630 O.3   999  UNK999     -0.4855
     65  O8       159.0160  162.8440  137.9800 O.3   999  UNK999     -0.4855
     66  C22      159.2580  163.2220  136.6260 C.3   999  UNK999      0.1346
     67  C23      162.5250  158.7730  136.8430 C.3   999  UNK999      0.1346
     68  H1       136.8940  155.0660  129.0970 H     999  UNK999      0.0356
     69  H2       135.4960  152.4280  125.2350 H     999  UNK999      0.0315
     70  H3       135.9150  151.2230  123.3320 H     999  UNK999      0.0312
     71  H4       131.9830  150.1980  123.5900 H     999  UNK999      0.0290
     72  H5       132.8790  148.8130  124.1330 H     999  UNK999      0.0290
     73  H6       133.8410  150.9180  122.1560 H     999  UNK999      0.0599
     74  H7       133.0730  150.6740  125.7370 H     999  UNK999      0.0271
     75  H8       133.5780  151.7550  124.4780 H     999  UNK999      0.0271
     76  H9       137.5800  149.0540  124.6310 H     999  UNK999      0.0268
     77  H10      137.9630  149.7390  123.0990 H     999  UNK999      0.0268
     78  H11      138.1710  151.9060  123.8800 H     999  UNK999      0.0271
     79  H12      139.1230  150.9310  124.8870 H     999  UNK999      0.0271
     80  H13      135.2760  153.5540  128.7360 H     999  UNK999      0.0572
     81  H14      134.0970  152.1450  127.1330 H     999  UNK999      0.0310
     82  H15      135.2610  151.1280  127.9520 H     999  UNK999      0.0310
     83  H16      139.6510  152.7040  127.0600 H     999  UNK999      0.0274
     84  H17      139.7550  153.3380  125.4600 H     999  UNK999      0.0274
     85  H18      139.4380  155.6220  126.2970 H     999  UNK999      0.0276
     86  H19      140.7130  154.8460  127.1440 H     999  UNK999      0.0276
     87  H20      140.4310  156.6440  128.8050 H     999  UNK999      0.0276
     88  H21      139.1090  156.6450  129.9160 H     999  UNK999      0.0276
     89  H22      139.0080  158.6690  128.5860 H     999  UNK999      0.0271
     90  H23      139.1140  157.7740  127.1030 H     999  UNK999      0.0271
     91  H24      135.7120  156.2160  127.3340 H     999  UNK999      0.0276
     92  H25      137.1520  156.3470  126.3780 H     999  UNK999      0.0276
     93  H26      137.4900  149.8240  127.1120 H     999  UNK999      0.0235
     94  H27      138.9780  150.6910  127.0940 H     999  UNK999      0.0235
     95  H28      137.6780  151.2430  128.1060 H     999  UNK999      0.0235
     96  H29      134.4780  148.3110  125.5950 H     999  UNK999      0.0235
     97  H30      136.1130  148.5970  126.0820 H     999  UNK999      0.0235
     98  H31      134.7790  149.2600  126.9890 H     999  UNK999      0.0235
     99  H32      133.1090  148.2510  121.7260 H     999  UNK999      0.2098
    100  H33      135.4490  157.6550  129.4040 H     999  UNK999      0.0235
    101  H34      136.9110  157.0340  130.1490 H     999  UNK999      0.0235
    102  H35      136.7340  158.7520  129.8870 H     999  UNK999      0.0235
    103  H36      137.2440  153.6690  124.0260 H     999  UNK999      0.0238
    104  H37      136.2570  154.5500  125.1280 H     999  UNK999      0.0238
    105  H38      137.9200  155.0100  124.8530 H     999  UNK999      0.0238
    106  H39      135.4670  149.1720  120.4310 H     999  UNK999      0.0236
    107  H40      136.0680  150.7000  121.0610 H     999  UNK999      0.0236
    108  H41      136.9900  149.2190  121.2590 H     999  UNK999      0.0236
    109  H42      135.0250  147.2780  121.9770 H     999  UNK999      0.0236
    110  H43      136.3350  147.5210  123.1070 H     999  UNK999      0.0236
    111  H44      134.6770  147.4990  123.6670 H     999  UNK999      0.0236
    112  H45      135.5360  158.7720  127.1150 H     999  UNK999      0.0235
    113  H46      136.8730  159.7840  127.6500 H     999  UNK999      0.0235
    114  H47      137.0340  158.8150  126.1990 H     999  UNK999      0.0235
    115  H1       137.8250  154.5950  130.6490 H     999  UNK999      0.1488
    116  H2       139.6510  152.4930  131.6240 H     999  UNK999      0.0484
    117  H3       138.2430  153.1600  132.4260 H     999  UNK999      0.0484
    118  H4       139.4710  155.3130  132.8120 H     999  UNK999      0.0575
    119  H5       140.9030  154.6370  132.0520 H     999  UNK999      0.0575
    120  H6       140.5990  155.6480  134.7620 H     999  UNK999      0.0583
    121  H7       142.0790  155.0020  134.0710 H     999  UNK999      0.0583
    122  H8       140.8400  153.5260  136.4230 H     999  UNK999      0.0583
    123  H9       141.5740  155.0840  136.7020 H     999  UNK999      0.0583
    124  H10      143.0100  153.7510  138.0790 H     999  UNK999      0.0583
    125  H11      143.8780  154.9780  137.1710 H     999  UNK999      0.0583
    126  H12      145.0680  152.5970  136.2890 H     999  UNK999      0.0583
    127  H13      144.7500  152.2230  137.9610 H     999  UNK999      0.0583
    128  H14      146.2490  153.5190  139.6390 H     999  UNK999      0.0583
    129  H15      145.1330  154.7750  139.1530 H     999  UNK999      0.0583
    130  H16      147.0760  155.8850  139.9940 H     999  UNK999      0.0583
    131  H17      147.0130  156.1610  138.2640 H     999  UNK999      0.0583
    132  H18      149.1870  156.8030  138.9050 H     999  UNK999      0.0583
    133  H19      150.3720  155.5940  138.5180 H     999  UNK999      0.0583
    134  H20      149.0850  155.5940  141.2880 H     999  UNK999      0.0583
    135  H21      150.3880  156.6860  140.9320 H     999  UNK999      0.0583
    136  H22      152.7480  154.1370  141.5010 H     999  UNK999      0.0578
    137  H23      152.1470  155.6490  142.1490 H     999  UNK999      0.0578
    138  H24      152.3730  156.6870  139.8420 H     999  UNK999      0.0532
    139  H25      152.8720  155.1510  139.2160 H     999  UNK999      0.0532
    140  H26      154.2550  157.7870  141.7750 H     999  UNK999      0.0846
    141  H27      157.2810  158.8670  141.4420 H     999  UNK999      0.0764
    142  H28      156.4410  159.4800  140.0460 H     999  UNK999      0.0764
    143  H29      157.5330  160.9530  138.9860 H     999  UNK999      0.0691
    144  H30      160.6360  157.9790  139.1120 H     999  UNK999      0.0691
    145  H31      161.5280  161.9330  137.7220 H     999  UNK999      0.0691
    146  C1       165.0120  188.9460  123.7180 C.3   999  UNK999     -0.0258
    147  O1       164.2820  189.1050  121.4270 O.3   999  UNK999     -0.3912
    148  C2       164.5860  188.1830  122.4620 C.3   999  UNK999      0.0606
    149  N1       165.7990  182.2020  130.3790 N.am  999  UNK999     -0.3126
    150  C3       163.4240  187.1850  122.7120 C.3   999  UNK999     -0.0056
    151  O3       165.1210  180.2100  129.6040 O.2   999  UNK999     -0.2752
    152  C4       163.8780  186.2240  123.8690 C.3   999  UNK999     -0.0278
    153  C5       164.4650  186.8650  125.1800 C.3   999  UNK999     -0.0250
    154  C6       165.5000  187.9640  124.7910 C.3   999  UNK999     -0.0447
    155  C7       162.8990  185.0830  124.2210 C.3   999  UNK999     -0.0486
    156  C8       163.6590  183.9150  124.8580 C.3   999  UNK999     -0.0463
    157  C9       164.5600  184.2970  126.0800 C.3   999  UNK999     -0.0194
    158  C10      165.2380  185.7150  125.9330 C.3   999  UNK999     -0.0257
    159  C11      165.7540  183.2490  126.2720 C.3   999  UNK999     -0.0051
    160  C12      166.6550  183.6820  127.4590 C.2   999  UNK999     -0.0629
    161  C13      166.6980  184.9630  127.8840 C.2   999  UNK999     -0.0836
    162  C14      165.9250  186.1150  127.2650 C.3   999  UNK999     -0.0306
    163  C15      165.1950  181.8130  126.5060 C.3   999  UNK999     -0.0424
    164  C16      166.2340  180.7980  127.0230 C.3   999  UNK999     -0.0377
    165  C17      166.9070  181.2440  128.3420 C.3   999  UNK999      0.0535
    166  C18      167.5820  182.6390  128.1020 C.3   999  UNK999     -0.0050
    167  C19      167.9780  180.2150  128.7890 C.3   999  UNK999     -0.0380
    168  C20      169.2770  180.1820  127.9650 C.3   999  UNK999     -0.0469
    169  C21      169.9500  181.5630  127.8550 C.3   999  UNK999     -0.0343
    170  C22      168.9100  182.5520  127.2970 C.3   999  UNK999     -0.0404
    171  C23      165.8450  181.2040  129.4850 C.2   999  UNK999      0.2198
    172  C24      163.6020  184.2910  127.3150 C.3   999  UNK999     -0.0585
    173  C25      163.3980  187.5450  126.0840 C.3   999  UNK999     -0.0590
    174  C26      170.4900  182.0450  129.2110 C.3   999  UNK999     -0.0598
    175  C27      166.6770  183.1960  125.0050 C.3   999  UNK999     -0.0553
    176  C28      163.2290  186.3690  121.4060 C.3   999  UNK999     -0.0572
    177  C29      162.0850  187.9060  122.9940 C.3   999  UNK999     -0.0572
    178  C30      171.1510  181.4760  126.8920 C.3   999  UNK999     -0.0598
    179  C1       164.9630  182.1800  131.5780 C.3   999  UNK999      0.0350
    180  C2       165.5180  181.2140  132.6420 C.3   999  UNK999      0.0633
    181  O1       164.4890  180.8630  133.5590 O.3   999  UNK999     -0.3760
    182  C3       164.8800  179.8040  134.4180 C.3   999  UNK999      0.0711
    183  C4       163.7870  179.5150  135.4570 C.3   999  UNK999      0.0711
    184  O2       163.7720  178.1200  135.7370 O.3   999  UNK999     -0.3752
    185  C5       163.0460  177.7920  136.9160 C.3   999  UNK999      0.0711
    186  C6       163.3740  176.3550  137.3520 C.3   999  UNK999      0.0711
    187  O3       162.8890  175.3730  136.4240 O.3   999  UNK999     -0.3752
    188  C7       163.3170  174.0580  136.7730 C.3   999  UNK999      0.0711
    189  C8       162.3060  173.3990  137.7320 C.3   999  UNK999      0.0711
    190  O4       161.5620  172.3470  137.0910 O.3   999  UNK999     -0.3752
    191  C9       162.2630  171.0890  137.1770 C.3   999  UNK999      0.0711
    192  C10      162.4390  170.4130  135.8000 C.3   999  UNK999      0.0711
    193  O5       161.2430  169.7840  135.3340 O.3   999  UNK999     -0.3757
    194  C11      161.0220  168.4630  135.8540 C.3   999  UNK999      0.0673
    195  C12      161.8980  167.3110  135.3240 C.3   999  UNK999      0.0665
    196  N2       161.4060  166.0650  135.8890 N.ar  999  UNK999     -0.2491
    197  N3       161.8600  165.6780  137.0970 N.ar  999  UNK999     -0.0653
    198  N4       161.1700  164.6480  137.4590 N.ar  999  UNK999     -0.1310
    199  C13      160.4170  165.2120  135.4340 C.ar  999  UNK999      0.0521
    200  C14      160.2530  164.3320  136.4700 C.ar  999  UNK999      0.1199
    201  H1       167.8670  183.0390  129.0740 H     999  UNK999      0.0356
    202  H2       166.0800  185.5560  125.2680 H     999  UNK999      0.0315
    203  H3       164.7320  185.7110  123.4220 H     999  UNK999      0.0312
    204  H4       165.8260  189.6320  123.4810 H     999  UNK999      0.0290
    205  H5       164.2060  189.5700  124.1030 H     999  UNK999      0.0290
    206  H6       165.4500  187.6060  122.1350 H     999  UNK999      0.0599
    207  H7       165.7980  188.5300  125.6760 H     999  UNK999      0.0271
    208  H8       166.4200  187.5090  124.4210 H     999  UNK999      0.0271
    209  H9       162.0920  185.4150  124.8690 H     999  UNK999      0.0268
    210  H10      162.4000  184.6910  123.3380 H     999  UNK999      0.0268
    211  H11      164.2090  183.4320  124.0580 H     999  UNK999      0.0271
    212  H12      162.9410  183.1460  125.1450 H     999  UNK999      0.0271
    213  H13      167.3450  185.2340  128.7060 H     999  UNK999      0.0572
    214  H14      166.6260  186.9340  127.1060 H     999  UNK999      0.0310
    215  H15      165.2070  186.4570  128.0080 H     999  UNK999      0.0310
    216  H16      164.3760  181.8160  127.2200 H     999  UNK999      0.0274
    217  H17      164.7630  181.4280  125.5820 H     999  UNK999      0.0274
    218  H18      166.9860  180.6110  126.2620 H     999  UNK999      0.0276
    219  H19      165.7410  179.8340  127.1540 H     999  UNK999      0.0276
    220  H20      167.5460  179.2140  128.8090 H     999  UNK999      0.0276
    221  H21      168.2440  180.4490  129.8160 H     999  UNK999      0.0276
    222  H22      169.9680  179.4630  128.4080 H     999  UNK999      0.0271
    223  H23      169.0460  179.7920  126.9750 H     999  UNK999      0.0271
    224  H24      169.3510  183.5470  127.2200 H     999  UNK999      0.0276
    225  H25      168.7000  182.2440  126.2790 H     999  UNK999      0.0276
    226  H26      162.9160  185.1300  127.3090 H     999  UNK999      0.0235
    227  H27      162.9670  183.4080  127.3530 H     999  UNK999      0.0235
    228  H28      164.1250  184.3240  128.2690 H     999  UNK999      0.0235
    229  H29      163.0260  188.4750  125.6690 H     999  UNK999      0.0235
    230  H30      162.5230  186.9360  126.2810 H     999  UNK999      0.0235
    231  H31      163.8090  187.8270  127.0520 H     999  UNK999      0.0235
    232  H32      163.5050  189.5710  121.7250 H     999  UNK999      0.2098
    233  H33      170.9280  183.0410  129.1260 H     999  UNK999      0.0235
    234  H34      169.7170  182.0980  129.9750 H     999  UNK999      0.0235
    235  H35      171.2650  181.3770  129.5840 H     999  UNK999      0.0235
    236  H36      166.2190  183.5290  124.0810 H     999  UNK999      0.0238
    237  H37      167.5510  183.8360  125.1200 H     999  UNK999      0.0238
    238  H38      167.0450  182.1950  124.7900 H     999  UNK999      0.0238
    239  H39      163.0570  187.0120  120.5440 H     999  UNK999      0.0236
    240  H40      164.0940  185.7440  121.1830 H     999  UNK999      0.0236
    241  H41      162.3600  185.7140  121.4570 H     999  UNK999      0.0236
    242  H42      161.7040  188.4070  122.1040 H     999  UNK999      0.0236
    243  H43      161.3140  187.2010  123.3060 H     999  UNK999      0.0236
    244  H44      162.1520  188.6670  123.7660 H     999  UNK999      0.0236
    245  H45      171.6140  182.4520  126.7470 H     999  UNK999      0.0235
    246  H46      171.9190  180.8030  127.2760 H     999  UNK999      0.0235
    247  H47      170.8640  181.1070  125.9100 H     999  UNK999      0.0235
    248  H1       166.4330  182.9770  130.2710 H     999  UNK999      0.1488
    249  H2       163.9520  181.8830  131.2970 H     999  UNK999      0.0484
    250  H3       164.8870  183.1870  131.9910 H     999  UNK999      0.0484
    251  H4       166.3560  181.6720  133.1700 H     999  UNK999      0.0575
    252  H5       165.9000  180.3070  132.1690 H     999  UNK999      0.0575
    253  H6       165.8260  180.0190  134.9170 H     999  UNK999      0.0583
    254  H7       165.0340  178.9180  133.8030 H     999  UNK999      0.0583
    255  H8       162.8070  179.7990  135.0720 H     999  UNK999      0.0583
    256  H9       163.9740  180.1160  136.3490 H     999  UNK999      0.0583
    257  H10      161.9760  177.9230  136.7550 H     999  UNK999      0.0583
    258  H11      163.3360  178.4600  137.7310 H     999  UNK999      0.0583
    259  H12      162.9460  176.1770  138.3400 H     999  UNK999      0.0583
    260  H13      164.4510  176.2700  137.4680 H     999  UNK999      0.0583
    261  H14      164.3210  174.0570  137.2040 H     999  UNK999      0.0583
    262  H15      163.3930  173.4750  135.8560 H     999  UNK999      0.0583
    263  H16      161.6090  174.1610  138.0760 H     999  UNK999      0.0583
    264  H17      162.8020  173.0530  138.6420 H     999  UNK999      0.0583
    265  H18      161.7360  170.4420  137.8780 H     999  UNK999      0.0583
    266  H19      163.2660  171.2080  137.5930 H     999  UNK999      0.0583
    267  H20      163.2620  169.6990  135.8220 H     999  UNK999      0.0583
    268  H21      162.7390  171.1680  135.0730 H     999  UNK999      0.0583
    269  H22      160.0070  168.1930  135.5740 H     999  UNK999      0.0578
    270  H23      161.0290  168.4810  136.9410 H     999  UNK999      0.0578
    271  H24      162.9420  167.4370  135.6140 H     999  UNK999      0.0532
    272  H25      161.8590  167.2440  134.2380 H     999  UNK999      0.0532
    273  H26      159.8980  165.3080  134.4930 H     999  UNK999      0.0846
    274  H27      158.3070  163.5780  136.2470 H     999  UNK999      0.0764
    275  H28      159.5270  162.3700  135.9990 H     999  UNK999      0.0764
    276  C1       182.6910  141.4810  123.7760 C.3   999  UNK999     -0.0258
    277  O1       183.2090  142.1410  121.5180 O.3   999  UNK999     -0.3912
    278  C2       182.2550  142.2950  122.5570 C.3   999  UNK999      0.0606
    279  N1       176.4440  143.7790  130.5640 N.am  999  UNK999     -0.3126
    280  C3       181.9770  143.7870  122.8790 C.3   999  UNK999     -0.0056
    281  O3       175.2930  145.5270  129.7650 O.2   999  UNK999     -0.2752
    282  C4       180.9100  143.8220  124.0320 C.3   999  UNK999     -0.0278
    283  C5       181.1560  142.9240  125.2990 C.3   999  UNK999     -0.0250
    284  C6       181.5890  141.4980  124.8430 C.3   999  UNK999     -0.0447
    285  C7       180.4200  145.2250  124.4540 C.3   999  UNK999     -0.0486
    286  C8       179.0240  145.1300  125.0810 C.3   999  UNK999     -0.0463
    287  C9       178.8850  144.0890  126.2440 C.3   999  UNK999     -0.0194
    288  C10      179.7640  142.7960  126.0300 C.3   999  UNK999     -0.0257
    289  C11      177.3740  143.5830  126.3900 C.3   999  UNK999     -0.0051
    290  C12      177.2800  142.5130  127.5110 C.2   999  UNK999     -0.0629
    291  C13      178.3570  141.8020  127.9070 C.2   999  UNK999     -0.0836
    292  C14      179.7480  141.9240  127.3120 C.3   999  UNK999     -0.0306
    293  C15      176.4190  144.7800  126.6840 C.3   999  UNK999     -0.0424
    294  C16      175.0200  144.3780  127.1970 C.3   999  UNK999     -0.0377
    295  C17      175.0780  143.4950  128.4710 C.3   999  UNK999      0.0535
    296  C18      175.9050  142.2130  128.1290 C.3   999  UNK999     -0.0050
    297  C19      173.6510  143.0860  128.9170 C.3   999  UNK999     -0.0380
    298  C20      172.9230  142.0860  128.0000 C.3   999  UNK999     -0.0469
    299  C21      173.7360  140.7990  127.7540 C.3   999  UNK999     -0.0343
    300  C22      175.1300  141.1990  127.2370 C.3   999  UNK999     -0.0404
    301  C23      175.6410  144.3480  129.6530 C.2   999  UNK999      0.2198
    302  C24      179.3530  144.8430  127.5310 C.3   999  UNK999     -0.0585
    303  C25      182.2710  143.4550  126.2450 C.3   999  UNK999     -0.0590
    304  C26      173.8530  139.9500  129.0290 C.3   999  UNK999     -0.0598
    305  C27      176.8730  142.8960  125.0730 C.3   999  UNK999     -0.0553
    306  C28      181.3810  144.4320  121.6000 C.3   999  UNK999     -0.0572
    307  C29      183.2740  144.5630  123.2120 C.3   999  UNK999     -0.0572
    308  C30      173.0200  139.9370  126.6950 C.3   999  UNK999     -0.0598
    309  C1       177.0140  144.4800  131.7170 C.3   999  UNK999      0.0350
    310  C2       175.9650  144.8240  132.7930 C.3   999  UNK999      0.0633
    311  O1       176.5610  145.6220  133.8080 O.3   999  UNK999     -0.3760
    312  C3       175.6290  146.1610  134.7400 C.3   999  UNK999      0.0711
    313  C4       175.2140  147.5780  134.2960 C.3   999  UNK999      0.0711
    314  O2       174.1080  148.1070  135.0230 O.3   999  UNK999     -0.3752
    315  C5       174.4180  148.4750  136.3680 C.3   999  UNK999      0.0711
    316  C6       173.2180  149.1710  137.0310 C.3   999  UNK999      0.0711
    317  O3       172.8600  150.3450  136.2950 O.3   999  UNK999     -0.3752
    318  C7       171.8330  151.0920  136.9230 C.3   999  UNK999      0.0711
    319  C8       171.4430  152.2620  135.9940 C.3   999  UNK999      0.0711
    320  O4       170.7820  153.3580  136.6430 O.3   999  UNK999     -0.3752
    321  C9       169.5360  153.0410  137.2750 C.3   999  UNK999      0.0711
    322  C10      168.3870  152.6990  136.2990 C.3   999  UNK999      0.0711
    323  O5       167.8990  153.8490  135.5980 O.3   999  UNK999     -0.3757
    324  C11      166.8640  154.5370  136.3070 C.3   999  UNK999      0.0673
    325  C12      166.0140  155.4330  135.3810 C.3   999  UNK999      0.0665
    326  N2       165.1890  156.4020  136.0930 N.ar  999  UNK999     -0.2491
    327  N3       165.5720  156.8800  137.3000 N.ar  999  UNK999     -0.0653
    328  N4       164.7180  157.7770  137.6580 N.ar  999  UNK999     -0.1310
    329  C13      163.7190  157.8730  136.6960 C.ar  999  UNK999      0.1199
    330  C14      164.0280  157.0190  135.6730 C.ar  999  UNK999      0.0521
    331  H1       176.0950  141.6840  129.0630 H     999  UNK999      0.0356
    332  H2       179.2070  142.1910  125.3230 H     999  UNK999      0.0315
    333  H3       180.0380  143.3710  123.5530 H     999  UNK999      0.0312
    334  H4       182.8770  140.4450  123.4880 H     999  UNK999      0.0290
    335  H5       183.6320  141.8450  124.1870 H     999  UNK999      0.0290
    336  H6       181.3210  141.8570  122.2040 H     999  UNK999      0.0599
    337  H7       181.9240  140.9140  125.7020 H     999  UNK999      0.0271
    338  H8       180.7360  140.9490  124.4400 H     999  UNK999      0.0271
    339  H9       181.1120  145.7180  125.1320 H     999  UNK999      0.0268
    340  H10      180.3390  145.8970  123.6040 H     999  UNK999      0.0268
    341  H11      178.3320  144.9520  124.2650 H     999  UNK999      0.0271
    342  H12      178.7280  146.1210  125.4250 H     999  UNK999      0.0271
    343  H13      178.2560  141.0620  128.6880 H     999  UNK999      0.0572
    344  H14      180.1060  140.9170  127.1000 H     999  UNK999      0.0310
    345  H15      180.3960  142.3270  128.0890 H     999  UNK999      0.0310
    346  H16      176.8400  145.4560  127.4230 H     999  UNK999      0.0274
    347  H17      176.2980  145.3890  125.7870 H     999  UNK999      0.0274
    348  H18      174.4690  143.8770  126.4070 H     999  UNK999      0.0276
    349  H19      174.4420  145.2840  127.3860 H     999  UNK999      0.0276
    350  H20      173.0350  143.9780  129.0310 H     999  UNK999      0.0276
    351  H21      173.7240  142.6400  129.9070 H     999  UNK999      0.0276
    352  H22      171.9530  141.8400  128.4340 H     999  UNK999      0.0271
    353  H23      172.7020  142.5790  127.0530 H     999  UNK999      0.0271
    354  H24      175.7410  140.3070  127.0920 H     999  UNK999      0.0276
    355  H25      174.9840  141.6200  126.2480 H     999  UNK999      0.0276
    356  H26      180.4250  144.9990  127.5530 H     999  UNK999      0.0235
    357  H27      178.9220  145.8390  127.6200 H     999  UNK999      0.0235
    358  H28      179.0950  144.3230  128.4520 H     999  UNK999      0.0235
    359  H29      183.2660  143.3280  125.8340 H     999  UNK999      0.0235
    360  H30      182.1850  144.5070  126.4950 H     999  UNK999      0.0235
    361  H31      182.2950  142.9100  127.1860 H     999  UNK999      0.0235
    362  H32      183.9990  142.5750  121.8310 H     999  UNK999      0.2098
    363  H33      174.4490  139.0530  128.8540 H     999  UNK999      0.0235
    364  H34      174.3210  140.4940  129.8460 H     999  UNK999      0.0235
    365  H35      172.8720  139.6260  129.3770 H     999  UNK999      0.0235
    366  H36      177.4170  143.1610  124.1730 H     999  UNK999      0.0238
    367  H37      176.9580  141.8100  125.1300 H     999  UNK999      0.0238
    368  H38      175.8330  143.1240  124.8510 H     999  UNK999      0.0238
    369  H39      182.0310  144.3000  120.7350 H     999  UNK999      0.0236
    370  H40      180.4080  144.0120  121.3470 H     999  UNK999      0.0236
    371  H41      181.2520  145.5090  121.7040 H     999  UNK999      0.0236
    372  H42      183.9080  144.6780  122.3330 H     999  UNK999      0.0236
    373  H43      183.0510  145.5700  123.5670 H     999  UNK999      0.0236
    374  H44      183.8860  144.0860  123.9700 H     999  UNK999      0.0236
    375  H45      173.6110  139.0590  126.4310 H     999  UNK999      0.0235
    376  H46      172.0520  139.5860  127.0550 H     999  UNK999      0.0235
    377  H47      172.8380  140.4870  125.7750 H     999  UNK999      0.0235
    378  H1       176.6610  142.8000  130.4790 H     999  UNK999      0.1488
    379  H2       177.5010  145.3930  131.3720 H     999  UNK999      0.0484
    380  H3       177.7950  143.8570  132.1550 H     999  UNK999      0.0484
    381  H4       175.5770  143.9140  133.2470 H     999  UNK999      0.0575
    382  H5       175.1200  145.3550  132.3530 H     999  UNK999      0.0575
    383  H6       176.1140  146.2060  135.7150 H     999  UNK999      0.0583
    384  H7       174.7590  145.5130  134.8540 H     999  UNK999      0.0583
    385  H8       174.9090  147.5450  133.2510 H     999  UNK999      0.0583
    386  H9       176.0650  148.2580  134.3390 H     999  UNK999      0.0583
    387  H10      175.2800  149.1440  136.3860 H     999  UNK999      0.0583
    388  H11      174.6790  147.5910  136.9520 H     999  UNK999      0.0583
    389  H12      173.4850  149.4350  138.0550 H     999  UNK999      0.0583
    390  H13      172.3730  148.4880  137.1000 H     999  UNK999      0.0583
    391  H14      172.2030  151.4710  137.8770 H     999  UNK999      0.0583
    392  H15      170.9680  150.4580  137.1310 H     999  UNK999      0.0583
    393  H16      170.8710  151.8960  135.1420 H     999  UNK999      0.0583
    394  H17      172.3580  152.6760  135.5670 H     999  UNK999      0.0583
    395  H18      169.2750  153.9160  137.8610 H     999  UNK999      0.0583
    396  H19      169.6640  152.2340  137.9970 H     999  UNK999      0.0583
    397  H20      168.7100  151.9610  135.5680 H     999  UNK999      0.0583
    398  H21      167.5820  152.2060  136.8480 H     999  UNK999      0.0583
    399  H22      167.3700  155.1430  137.0540 H     999  UNK999      0.0578
    400  H23      166.1890  153.8560  136.8280 H     999  UNK999      0.0578
    401  H24      165.3610  154.8140  134.7640 H     999  UNK999      0.0532
    402  H25      166.6520  155.9920  134.7000 H     999  UNK999      0.0532
    403  H26      163.5210  156.8040  134.7440 H     999  UNK999      0.0846
    404  H27      162.4880  159.4770  136.0130 H     999  UNK999      0.0764
    405  H28      161.6270  158.1680  136.7600 H     999  UNK999      0.0764
@<TRIPOS>BOND
     1     1     3    1
     2     1     9    1
     3     1    71    1
     4     1    72    1
     5     2     3    1
     6     2    99    1
     7     3     5    1
     8     3    73    1
     9     4    26   am
    10     4    34    1
    11     4   115    1
    12     5     7    1
    13     5    31    1
    14     5    32    1
    15     6    26    2
    16     7     8    1
    17     7    10    1
    18     7    70    1
    19     8     9    1
    20     8    13    1
    21     8    28    1
    22     9    74    1
    23     9    75    1
    24    10    11    1
    25    10    76    1
    26    10    77    1
    27    11    12    1
    28    11    78    1
    29    11    79    1
    30    12    13    1
    31    12    14    1
    32    12    27    1
    33    13    17    1
    34    13    69    1
    35    14    15    1
    36    14    18    1
    37    14    30    1
    38    15    16    2
    39    15    21    1
    40    16    17    1
    41    16    80    1
    42    17    81    1
    43    17    82    1
    44    18    19    1
    45    18    83    1
    46    18    84    1
    47    19    20    1
    48    19    85    1
    49    19    86    1
    50    20    21    1
    51    20    22    1
    52    20    26    1
    53    21    25    1
    54    21    68    1
    55    22    23    1
    56    22    87    1
    57    22    88    1
    58    23    24    1
    59    23    89    1
    60    23    90    1
    61    24    25    1
    62    24    29    1
    63    24    33    1
    64    25    91    1
    65    25    92    1
    66    27    93    1
    67    27    94    1
    68    27    95    1
    69    28    96    1
    70    28    97    1
    71    28    98    1
    72    29   100    1
    73    29   101    1
    74    29   102    1
    75    30   103    1
    76    30   104    1
    77    30   105    1
    78    31   106    1
    79    31   107    1
    80    31   108    1
    81    32   109    1
    82    32   110    1
    83    32   111    1
    84    33   112    1
    85    33   113    1
    86    33   114    1
    87    34    35    1
    88    34   116    1
    89    34   117    1
    90   146   148    1
    91   146   154    1
    92   146   204    1
    93   146   205    1
    94   147   148    1
    95   147   232    1
    96   148   150    1
    97   148   206    1
    98   149   171   am
    99   149   179    1
   100   149   248    1
   101   150   152    1
   102   150   176    1
   103   150   177    1
   104   151   171    2
   105   152   153    1
   106   152   155    1
   107   152   203    1
   108   153   154    1
   109   153   158    1
   110   153   173    1
   111   154   207    1
   112   154   208    1
   113   155   156    1
   114   155   209    1
   115   155   210    1
   116   156   157    1
   117   156   211    1
   118   156   212    1
   119   157   158    1
   120   157   159    1
   121   157   172    1
   122   158   162    1
   123   158   202    1
   124   159   160    1
   125   159   163    1
   126   159   175    1
   127   160   161    2
   128   160   166    1
   129   161   162    1
   130   161   213    1
   131   162   214    1
   132   162   215    1
   133   163   164    1
   134   163   216    1
   135   163   217    1
   136   164   165    1
   137   164   218    1
   138   164   219    1
   139   165   166    1
   140   165   167    1
   141   165   171    1
   142   166   170    1
   143   166   201    1
   144   167   168    1
   145   167   220    1
   146   167   221    1
   147   168   169    1
   148   168   222    1
   149   168   223    1
   150   169   170    1
   151   169   174    1
   152   169   178    1
   153   170   224    1
   154   170   225    1
   155   172   226    1
   156   172   227    1
   157   172   228    1
   158   173   229    1
   159   173   230    1
   160   173   231    1
   161   174   233    1
   162   174   234    1
   163   174   235    1
   164   175   236    1
   165   175   237    1
   166   175   238    1
   167   176   239    1
   168   176   240    1
   169   176   241    1
   170   177   242    1
   171   177   243    1
   172   177   244    1
   173   178   245    1
   174   178   246    1
   175   178   247    1
   176   179   180    1
   177   179   249    1
   178   179   250    1
   179   276   278    1
   180   276   284    1
   181   276   334    1
   182   276   335    1
   183   277   278    1
   184   277   362    1
   185   278   280    1
   186   278   336    1
   187   279   301   am
   188   279   309    1
   189   279   378    1
   190   280   282    1
   191   280   306    1
   192   280   307    1
   193   281   301    2
   194   282   283    1
   195   282   285    1
   196   282   333    1
   197   283   284    1
   198   283   288    1
   199   283   303    1
   200   284   337    1
   201   284   338    1
   202   285   286    1
   203   285   339    1
   204   285   340    1
   205   286   287    1
   206   286   341    1
   207   286   342    1
   208   287   288    1
   209   287   289    1
   210   287   302    1
   211   288   292    1
   212   288   332    1
   213   289   290    1
   214   289   293    1
   215   289   305    1
   216   290   291    2
   217   290   296    1
   218   291   292    1
   219   291   343    1
   220   292   344    1
   221   292   345    1
   222   293   294    1
   223   293   346    1
   224   293   347    1
   225   294   295    1
   226   294   348    1
   227   294   349    1
   228   295   296    1
   229   295   297    1
   230   295   301    1
   231   296   300    1
   232   296   331    1
   233   297   298    1
   234   297   350    1
   235   297   351    1
   236   298   299    1
   237   298   352    1
   238   298   353    1
   239   299   300    1
   240   299   304    1
   241   299   308    1
   242   300   354    1
   243   300   355    1
   244   302   356    1
   245   302   357    1
   246   302   358    1
   247   303   359    1
   248   303   360    1
   249   303   361    1
   250   304   363    1
   251   304   364    1
   252   304   365    1
   253   305   366    1
   254   305   367    1
   255   305   368    1
   256   306   369    1
   257   306   370    1
   258   306   371    1
   259   307   372    1
   260   307   373    1
   261   307   374    1
   262   308   375    1
   263   308   376    1
   264   308   377    1
   265    35    36    1
   266    35   118    1
   267    35   119    1
   268    36    37    1
   269    37    38    1
   270    37   120    1
   271    37   121    1
   272    38    39    1
   273    38   122    1
   274    38   123    1
   275    39    40    1
   276    40    41    1
   277    40   124    1
   278    40   125    1
   279    41    42    1
   280    41   126    1
   281    41   127    1
   282    42    43    1
   283    43    44    1
   284    43   128    1
   285    43   129    1
   286    44    45    1
   287    44   130    1
   288    44   131    1
   289    45    46    1
   290    46    47    1
   291    46   132    1
   292    46   133    1
   293    47    48    1
   294    47   134    1
   295    47   135    1
   296    48    49    1
   297    49    50    1
   298    49   136    1
   299    49   137    1
   300    50    51    1
   301    50   138    1
   302    50   139    1
   303    51    52   ar
   304    51    54   ar
   305    52    53   ar
   306    53    55   ar
   307    54    55   ar
   308    54   140    1
   309    55    56    1
   310    56    57    1
   311    56   141    1
   312    56   142    1
   313    57    58    1
   314    58    59   ar
   315    58    60   ar
   316    59    63   ar
   317    59   143    1
   318    60    61   ar
   319    60   144    1
   320    61    62   ar
   321    61    64    1
   322    62    63   ar
   323    62   145    1
   324    63    65    1
   325    64    67    1
   326    65    66    1
   327   180   181    1
   328   180   251    1
   329   180   252    1
   330   181   182    1
   331   182   183    1
   332   182   253    1
   333   182   254    1
   334   183   184    1
   335   183   255    1
   336   183   256    1
   337   184   185    1
   338   185   186    1
   339   185   257    1
   340   185   258    1
   341   186   187    1
   342   186   259    1
   343   186   260    1
   344   187   188    1
   345   188   189    1
   346   188   261    1
   347   188   262    1
   348   189   190    1
   349   189   263    1
   350   189   264    1
   351   190   191    1
   352   191   192    1
   353   191   265    1
   354   191   266    1
   355   192   193    1
   356   192   267    1
   357   192   268    1
   358   193   194    1
   359   194   195    1
   360   194   269    1
   361   194   270    1
   362   195   196    1
   363   195   271    1
   364   195   272    1
   365   196   197   ar
   366   196   199   ar
   367   197   198   ar
   368   198   200   ar
   369   199   200   ar
   370   199   273    1
   371    66   200    1
   372    66   274    1
   373    66   275    1
   374   309   310    1
   375   309   379    1
   376   309   380    1
   377   310   311    1
   378   310   381    1
   379   310   382    1
   380   311   312    1
   381   312   313    1
   382   312   383    1
   383   312   384    1
   384   313   314    1
   385   313   385    1
   386   313   386    1
   387   314   315    1
   388   315   316    1
   389   315   387    1
   390   315   388    1
   391   316   317    1
   392   316   389    1
   393   316   390    1
   394   317   318    1
   395   318   319    1
   396   318   391    1
   397   318   392    1
   398   319   320    1
   399   319   393    1
   400   319   394    1
   401   320   321    1
   402   321   322    1
   403   321   395    1
   404   321   396    1
   405   322   323    1
   406   322   397    1
   407   322   398    1
   408   323   324    1
   409   324   325    1
   410   324   399    1
   411   324   400    1
   412   325   326    1
   413   325   401    1
   414   325   402    1
   415   326   327   ar
   416   326   330   ar
   417   327   328   ar
   418   328   329   ar
   419   329   330   ar
   420   330   403    1
   421    67   329    1
   422    67   404    1
   423    67   405    1
