@<TRIPOS>MOLECULE
3LZG_tri.pdb
  373   390     1     0     0
SMALL
gas


@<TRIPOS>ATOM
      1 C           -5.8960    70.9470   -62.4570 c3       999 UNK      -0.059887
      2 C40         -6.6380    72.2860   -60.5250 c3       999 UNK      -0.059887
      3 C41         -3.9340    62.9500   -53.7810 c3       999 UNK      -0.057146
      4 C42         -5.5660    70.0570   -60.0710 c3       999 UNK      -0.040466
      5 C43         -4.1420    71.8230   -60.9940 c3       999 UNK      -0.047062
      6 C44         -4.3680    66.1820   -54.1740 c3       999 UNK      -0.048748
      7 C45         -6.2420    63.8600   -56.7240 c3       999 UNK      -0.044798
      8 C46         -5.5720    71.2830   -60.9970 c3       999 UNK      -0.034782
      9 C47         -6.2330    68.3520   -57.5130 c2       999 UNK      -0.084126
     10 C48         -5.1050    69.0210   -57.7930 c2       999 UNK      -0.063524
     11 C49         -2.6120    70.5890   -58.2270 c3       999 UNK      -0.037522
     12 C50         -5.6800    64.0930   -52.4580 c3       999 UNK      -0.057146
     13 C51         -6.3230    66.8950   -57.0590 c3       999 UNK      -0.030837
     14 C52         -3.7620    72.3260   -59.6190 c3       999 UNK      -0.037860
     15 C53         -3.7590    63.9030   -56.7110 c3       999 UNK      -0.059057
     16 C54         -2.6670    69.3710   -57.2740 c3       999 UNK      -0.042519
     17 C55         -6.3750    62.5260   -55.9410 c3       999 UNK      -0.025929
     18 C56         -5.2850    63.6900   -53.8840 c3       999 UNK      -0.006011
     19 C57         -6.3940    62.7320   -54.4160 c3       999 UNK       0.059375
     20 C58         -5.1580    70.3560   -58.5910 c3       999 UNK      -0.004977
     21 C59         -4.2210    67.4540   -55.0730 c3       999 UNK      -0.046426
     22 C60         -5.0220    64.7270   -56.2850 c3       999 UNK      -0.025376
     23 C61         -3.8290    67.1070   -56.5360 c3       999 UNK      -0.019794
     24 C62         -5.2170    64.9970   -54.7570 c3       999 UNK      -0.028080
     25 C63         -3.9380    71.3670   -58.4060 c3       999 UNK       0.053653
     26 C64         -4.9650    66.1170   -57.0210 c3       999 UNK      -0.026010
     27 C65         -2.3810    66.5260   -56.3970 c3       999 UNK      -0.058513
     28 C66         -4.1790    72.2050   -57.1090 c        999 UNK       0.218543
     29 C67         -3.7700    68.3170   -57.5910 c3       999 UNK      -0.005618
     30 C68         -3.5160    67.7090   -58.9710 c3       999 UNK      -0.055324
     31 O           -6.3500    61.4640   -53.7590 oh       999 UNK      -0.392562
     32 O13         -4.4620    71.5790   -56.0940 o        999 UNK      -0.277065
     33 N1          -4.1590    73.5540   -56.9970 n        999 UNK      -0.312618
     34 C69         -3.3310    55.1970   -70.7170 c3       999 UNK      -0.059887
     35 C70         -0.9510    54.9600   -70.8970 c3       999 UNK      -0.059887
     36 C71         -1.1320    54.7970   -58.9390 c3       999 UNK      -0.057146
     37 C72         -2.0530    54.6420   -68.6280 c3       999 UNK      -0.040466
     38 C73         -2.2840    52.8630   -70.3870 c3       999 UNK      -0.047062
     39 C74          0.2760    54.2980   -61.8380 c3       999 UNK      -0.048748
     40 C75         -2.6650    56.8130   -61.8750 c3       999 UNK      -0.044798
     41 C76         -2.1500    54.3910   -70.1430 c3       999 UNK      -0.034782
     42 C77         -1.1150    55.5660   -65.9230 c2       999 UNK      -0.084126
     43 C78         -1.0660    54.2890   -66.3550 c2       999 UNK      -0.063524
     44 C79         -0.5280    51.4390   -67.1310 c3       999 UNK      -0.037522
     45 C80          0.8400    56.1710   -59.5340 c3       999 UNK      -0.057146
     46 C81         -1.4570    56.0220   -64.5090 c3       999 UNK      -0.030837
     47 C82         -1.8300    51.9550   -69.2140 c3       999 UNK      -0.037860
     48 C83         -3.0840    54.4240   -61.3010 c3       999 UNK      -0.059057
     49 C84         -0.2240    52.0820   -65.7690 c3       999 UNK      -0.042519
     50 C85         -2.6980    57.3100   -60.4040 c3       999 UNK      -0.025929
     51 C86         -0.6110    55.8900   -59.9110 c3       999 UNK      -0.006011
     52 C87         -1.3430    57.2360   -59.6990 c3       999 UNK       0.059375
     53 C88         -0.8730    53.9600   -67.8710 c3       999 UNK      -0.004977
     54 C89          0.2260    53.8500   -63.3230 c3       999 UNK      -0.046426
     55 C90         -2.0960    55.3740   -62.0470 c3       999 UNK      -0.025376
     56 C91         -1.2060    53.5640   -63.8290 c3       999 UNK      -0.019794
     57 C92         -0.6620    55.4650   -61.4330 c3       999 UNK      -0.028080
     58 C93         -0.6230    52.4390   -68.3340 c3       999 UNK       0.053653
     59 C94         -2.0000    54.9110   -63.5690 c3       999 UNK      -0.026010
     60 C95         -1.7380    52.3440   -63.0110 c3       999 UNK      -0.058513
     61 C96          0.6980    52.2420   -69.1710 c        999 UNK       0.218543
     62 C97         -1.2850    53.1430   -65.3750 c3       999 UNK      -0.005618
     63 C98         -2.7060    52.5980   -65.6490 c3       999 UNK      -0.055324
     64 O14         -1.4750    57.5470   -58.3070 oh       999 UNK      -0.392562
     65 O15          1.7640    52.0010   -68.6130 o        999 UNK      -0.277065
     66 N2           0.6140    52.2080   -70.5090 n        999 UNK      -0.312618
     67 C99        -18.1140    57.6540   -60.5320 c3       999 UNK      -0.059887
     68 C100       -19.0630    55.3640   -60.2000 c3       999 UNK      -0.059887
     69 C101        -9.2730    54.4330   -53.8070 c3       999 UNK      -0.057146
     70 C102       -17.1250    56.2210   -58.8040 c3       999 UNK      -0.040466
     71 C103       -19.3440    57.0960   -58.3840 c3       999 UNK      -0.047062
     72 C104       -12.3990    53.9710   -54.3930 c3       999 UNK      -0.048748
     73 C105       -10.3610    55.7730   -57.2430 c3       999 UNK      -0.044798
     74 C106       -18.4350    56.5680   -59.4850 c3       999 UNK      -0.034782
     75 C107       -14.7250    54.8800   -57.8010 c2       999 UNK      -0.084126
     76 C108       -15.6960    55.3980   -57.0260 c2       999 UNK      -0.063524
     77 C109       -17.8550    56.6800   -55.4390 c3       999 UNK      -0.037522
     78 C110        -9.9150    52.2830   -54.8630 c3       999 UNK      -0.057146
     79 C111       -13.2460    55.1850   -57.6770 c3       999 UNK      -0.030837
     80 C112       -19.5460    56.1250   -57.2400 c3       999 UNK      -0.037860
     81 C113       -10.8280    56.8480   -55.0430 c3       999 UNK      -0.059057
     82 C114       -16.4560    56.4030   -54.8510 c3       999 UNK      -0.042519
     83 C115        -8.9090    55.3810   -56.9010 c3       999 UNK      -0.025929
     84 C116        -9.8330    53.7850   -55.0940 c3       999 UNK      -0.006011
     85 C117        -8.8860    53.9730   -56.3120 c3       999 UNK       0.059375
     86 C118       -17.1520    55.3460   -57.5120 c3       999 UNK      -0.004977
     87 C119       -13.8300    54.4040   -54.8050 c3       999 UNK      -0.046426
     88 C120       -11.3220    55.7280   -56.0120 c3       999 UNK      -0.025376
     89 C121       -13.9010    55.8780   -55.2880 c3       999 UNK      -0.019794
     90 C122       -11.2750    54.2800   -55.4370 c3       999 UNK      -0.028080
     91 C123       -18.3080    55.6330   -56.4660 c3       999 UNK       0.053653
     92 C124       -12.8080    56.0110   -56.4250 c3       999 UNK      -0.026010
     93 C125       -13.6340    56.7220   -54.0210 c3       999 UNK      -0.058513
     94 C126       -18.7010    54.3570   -55.6420 c        999 UNK       0.218543
     95 C127       -15.3040    56.3410   -55.8990 c3       999 UNK      -0.005618
     96 C128       -15.1410    57.7390   -56.5610 c3       999 UNK      -0.055324
     97 O16         -7.5660    53.6220   -55.9650 oh       999 UNK      -0.392562
     98 O17        -17.8060    53.6360   -55.2160 o        999 UNK      -0.277065
     99 N3         -19.9660    53.9760   -55.3440 n        999 UNK      -0.312618
    100 C1           1.6950    52.1370   -71.4790 c3       999 UNK       0.034496
    101 C2           1.4280    53.0620   -72.6880 c3       999 UNK       0.062212
    102 O1           0.1000    52.8720   -73.1870 os       999 UNK      -0.377436
    103 C3          -0.2500    53.7510   -74.2570 c3       999 UNK       0.070077
    104 C4          -1.7440    53.5510   -74.5990 c3       999 UNK       0.070114
    105 O2          -2.4080    54.7450   -75.0470 os       999 UNK      -0.376668
    106 C5          -3.6900    54.4510   -75.6050 c3       999 UNK       0.070114
    107 C6          -4.3630    55.6690   -76.2750 c3       999 UNK       0.070114
    108 O3          -5.2700    56.3490   -75.3970 os       999 UNK      -0.376668
    109 C7          -6.0240    57.3680   -76.0740 c3       999 UNK       0.070114
    110 C8          -7.1710    57.9240   -75.2000 c3       999 UNK       0.070079
    111 O4          -6.6740    58.4650   -73.9760 os       999 UNK      -0.377345
    112 C9          -7.6940    58.9130   -73.0610 c3       999 UNK       0.064459
    113 C10         -8.2780    60.3040   -73.4070 c3       999 UNK       0.059059
    114 N4          -9.1830    60.8250   -72.3850 na       999 UNK      -0.210020
    115 N5          -8.7070    61.1420   -71.1560 nc       999 UNK      -0.076040
    116 N6          -9.6990    61.6090   -70.4640 nd       999 UNK      -0.136209
    117 C11        -10.8560    61.6080   -71.2450 cd       999 UNK       0.094309
    118 C12        -10.5300    61.1220   -72.4820 cc       999 UNK       0.041051
    119 C13        -12.2080    62.0510   -70.7340 c3       999 UNK       0.044816
    120 N7         -12.3760    62.8580   -69.5150 n3       999 UNK      -0.285503
    121 C14         -3.7370    74.7270   -57.7860 c3       999 UNK       0.034496
    122 C15         -4.9210    75.5800   -58.3330 c3       999 UNK       0.062212
    123 O5          -5.2570    75.3400   -59.7030 os       999 UNK      -0.377436
    124 C16         -6.5350    75.8600   -60.0740 c3       999 UNK       0.070077
    125 C17         -6.7700    75.8100   -61.6040 c3       999 UNK       0.070114
    126 O6          -8.1510    75.5540   -61.9050 os       999 UNK      -0.376668
    127 C18         -8.3810    75.1710   -63.2650 c3       999 UNK       0.070114
    128 C19         -8.1820    73.6550   -63.4740 c3       999 UNK       0.070114
    129 O7          -9.1410    73.0940   -64.3680 os       999 UNK      -0.376668
    130 C20         -9.0600    71.6640   -64.4020 c3       999 UNK       0.070114
    131 C21        -10.0340    71.0610   -65.4310 c3       999 UNK       0.070079
    132 O8         -10.2230    69.6680   -65.1810 os       999 UNK      -0.377345
    133 C22        -10.8480    68.9910   -66.2710 c3       999 UNK       0.064459
    134 C23        -11.0850    67.4920   -65.9570 c3       999 UNK       0.059059
    135 N8         -11.5230    66.7190   -67.1200 na       999 UNK      -0.210020
    136 N9         -12.4460    67.2390   -67.9650 nc       999 UNK      -0.076040
    137 N10        -12.6050    66.3920   -68.9310 nd       999 UNK      -0.136209
    138 C24        -11.8080    65.2740   -68.7150 cd       999 UNK       0.094309
    139 C25        -11.1460    65.4460   -67.5300 cc       999 UNK       0.041051
    140 C26        -11.7510    64.1670   -69.7400 c3       999 UNK       0.044816
    141 C27        -21.2780    54.6440   -55.2960 c3       999 UNK       0.034496
    142 C28        -22.1820    54.3950   -56.5360 c3       999 UNK       0.062212
    143 O9         -22.4260    55.5630   -57.3420 os       999 UNK      -0.377436
    144 C29        -23.0220    55.2170   -58.5960 c3       999 UNK       0.070077
    145 C30        -23.4200    56.4380   -59.4630 c3       999 UNK       0.070114
    146 O10        -22.3510    56.8660   -60.3100 os       999 UNK      -0.376668
    147 C31        -22.7210    57.7520   -61.3690 c3       999 UNK       0.070114
    148 C32        -21.4350    58.2210   -62.0760 c3       999 UNK       0.070114
    149 O11        -21.5410    58.5350   -63.4650 os       999 UNK      -0.376668
    150 C33        -20.2510    58.9590   -63.9490 c3       999 UNK       0.070114
    151 C34        -20.1280    59.3240   -65.4430 c3       999 UNK       0.070079
    152 O12        -18.7310    59.2680   -65.7040 os       999 UNK      -0.377345
    153 C35        -18.2860    59.8880   -66.9140 c3       999 UNK       0.064459
    154 C36        -16.7600    59.6540   -66.9570 c3       999 UNK       0.059059
    155 N11        -16.0160    60.4730   -67.9070 na       999 UNK      -0.210020
    156 N12        -15.9570    60.1170   -69.2120 nc       999 UNK      -0.076040
    157 N13        -15.1490    60.9460   -69.8030 nd       999 UNK      -0.136209
    158 C37        -14.7070    61.8990   -68.8850 cd       999 UNK       0.094309
    159 C38        -15.2300    61.5860   -67.6630 cc       999 UNK       0.041051
    160 C39        -13.8140    63.0530   -69.2690 c3       999 UNK       0.044816
    161 HHXT        -5.1160    70.3300   -62.8930 hc       999 UNK       0.023592
    162 H74         -6.8640    70.4590   -62.5650 hc       999 UNK       0.023592
    163 H75         -5.9090    71.8440   -63.0720 hc       999 UNK       0.023592
    164 H76         -6.5520    72.5650   -59.4760 hc       999 UNK       0.023592
    165 H77         -6.5660    73.1990   -61.0960 hc       999 UNK       0.023592
    166 H78         -7.6380    71.8820   -60.6670 hc       999 UNK       0.023592
    167 H79         -3.7340    62.3050   -54.6350 hc       999 UNK       0.023698
    168 H80         -3.0920    63.6280   -53.6550 hc       999 UNK       0.023698
    169 H81         -3.9470    62.3040   -52.9170 hc       999 UNK       0.023698
    170 H82         -4.8840    69.3360   -60.5040 hc       999 UNK       0.027849
    171 H83         -6.5490    69.5850   -60.0900 hc       999 UNK       0.027849
    172 H84         -4.0430    72.6410   -61.7100 hc       999 UNK       0.027237
    173 H85         -3.4340    71.0620   -61.3170 hc       999 UNK       0.027237
    174 H86         -4.8330    66.5240   -53.2500 hc       999 UNK       0.027000
    175 H87         -3.3920    65.8260   -53.8590 hc       999 UNK       0.027000
    176 H88         -7.1680    64.4130   -56.5700 hc       999 UNK       0.027329
    177 H89         -6.1950    63.6540   -57.7920 hc       999 UNK       0.027329
    178 HXT         -7.1540    68.8580   -57.7110 ha       999 UNK       0.057578
    179 H90         -2.2310    70.2940   -59.2030 hc       999 UNK       0.027789
    180 H91         -1.8470    71.2690   -57.8500 hc       999 UNK       0.027789
    181 H92         -6.5380    64.7560   -52.4380 hc       999 UNK       0.023698
    182 H93         -5.8930    63.2400   -51.8150 hc       999 UNK       0.023698
    183 H94         -4.8720    64.6550   -52.0180 hc       999 UNK       0.023698
    184 H95         -7.0020    66.3910   -57.7430 hc       999 UNK       0.031301
    185 H96         -6.8240    66.9000   -56.0930 hc       999 UNK       0.031301
    186 H97         -4.4210    73.1690   -59.5130 hc       999 UNK       0.027777
    187 H98         -2.7430    72.7090   -59.6630 hc       999 UNK       0.027777
    188 H99         -2.9410    63.9480   -56.0020 hc       999 UNK       0.023623
    189 H100        -3.9280    62.8400   -56.8420 hc       999 UNK       0.023623
    190 H101        -3.3590    64.2170   -57.6740 hc       999 UNK       0.023623
    191 H102        -2.7780    69.7120   -56.2460 hc       999 UNK       0.027597
    192 H103        -1.6760    68.9290   -57.3340 hc       999 UNK       0.027597
    193 H104        -5.5920    61.8180   -56.2030 hc       999 UNK       0.029339
    194 H105        -7.2990    62.0330   -56.2440 hc       999 UNK       0.029339
    195 H196        -7.3610    63.1670   -54.1820 h1       999 UNK       0.060617
    196 H197        -6.0330    70.8580   -58.1750 hc       999 UNK       0.036011
    197 H106        -3.4760    68.1160   -54.6330 hc       999 UNK       0.027265
    198 H107        -5.1440    68.0300   -55.0320 hc       999 UNK       0.027265
    199 H198        -6.2290    65.3940   -54.6790 hc       999 UNK       0.031487
    200 H199        -4.7840    65.8290   -58.0510 hc       999 UNK       0.031750
    201 H108        -2.0150    66.0240   -57.2800 hc       999 UNK       0.023644
    202 H109        -1.6480    67.2740   -56.1130 hc       999 UNK       0.023644
    203 H110        -2.2580    65.8110   -55.5970 hc       999 UNK       0.023644
    204 H111        -2.8740    66.8470   -58.9440 hc       999 UNK       0.023951
    205 H112        -4.4200    67.3680   -59.4680 hc       999 UNK       0.023951
    206 H113        -3.1100    68.4540   -59.6170 hc       999 UNK       0.023951
    207 HO          -7.1020    60.9650   -54.0810 ho       999 UNK       0.210474
    208 H114        -3.5220    54.9590   -71.7640 hc       999 UNK       0.023592
    209 H115        -4.2260    55.0740   -70.1320 hc       999 UNK       0.023592
    210 H116        -3.1350    56.2710   -70.6600 hc       999 UNK       0.023592
    211 H117        -0.0010    54.6960   -70.4470 hc       999 UNK       0.023592
    212 H118        -0.9510    54.6280   -71.9240 hc       999 UNK       0.023592
    213 H119        -0.9930    56.0420   -70.9590 hc       999 UNK       0.023592
    214 H120        -2.2110    54.8380   -58.7990 hc       999 UNK       0.023698
    215 H121        -0.8770    53.7910   -59.2680 hc       999 UNK       0.023698
    216 H122        -0.6950    54.9110   -57.9520 hc       999 UNK       0.023698
    217 H123        -2.9790    54.3120   -68.1650 hc       999 UNK       0.027849
    218 H124        -2.0490    55.7110   -68.4420 hc       999 UNK       0.027849
    219 H125        -1.7920    52.5740   -71.3150 hc       999 UNK       0.027237
    220 H126        -3.3090    52.5790   -70.5530 hc       999 UNK       0.027237
    221 H127         1.2920    54.6410   -61.6780 hc       999 UNK       0.027000
    222 H128         0.1550    53.4480   -61.1720 hc       999 UNK       0.027000
    223 H129        -2.0410    57.5190   -62.4200 hc       999 UNK       0.027329
    224 H130        -3.6440    56.9080   -62.3330 hc       999 UNK       0.027329
    225 H131        -1.4350    50.8430   -67.0470 hc       999 UNK       0.027789
    226 H132         0.2200    50.6620   -67.3020 hc       999 UNK       0.027789
    227 H133         1.3420    56.8290   -60.2410 hc       999 UNK       0.023698
    228 H134         0.9620    56.5860   -58.5340 hc       999 UNK       0.023698
    229 H135         1.3460    55.2300   -59.5710 hc       999 UNK       0.023698
    230 H136        -2.1920    56.8210   -64.6050 hc       999 UNK       0.031301
    231 H137        -0.5640    56.4890   -64.1070 hc       999 UNK       0.031301
    232 H138        -1.6240    50.9540   -69.6000 hc       999 UNK       0.027777
    233 H139        -2.7020    51.8060   -68.5800 hc       999 UNK       0.027777
    234 H140        -2.6010    53.5510   -60.8750 hc       999 UNK       0.023623
    235 H141        -3.6090    54.8650   -60.4610 hc       999 UNK       0.023623
    236 H142        -3.8740    54.0700   -61.9580 hc       999 UNK       0.023623
    237 H143         0.7660    52.5400   -65.8050 hc       999 UNK       0.027597
    238 H144        -0.1410    51.2830   -65.0360 hc       999 UNK       0.027597
    239 H145        -3.4710    56.8230   -59.8120 hc       999 UNK       0.029339
    240 H146        -2.9520    58.3580   -60.4160 hc       999 UNK       0.029339
    241 H200        -0.7340    58.0260   -60.1370 h1       999 UNK       0.060617
    242 H201         0.0260    54.5170   -68.1360 hc       999 UNK       0.036011
    243 H147         0.8420    52.9640   -63.4430 hc       999 UNK       0.027265
    244 H148         0.7100    54.6070   -63.9400 hc       999 UNK       0.027265
    245 H202        -0.1970    56.3070   -61.9480 hc       999 UNK       0.031487
    246 H203        -3.0270    54.7680   -63.8950 hc       999 UNK       0.031750
    247 H149        -2.8180    52.3570   -62.9490 hc       999 UNK       0.023644
    248 H150        -1.4690    51.3790   -63.4300 hc       999 UNK       0.023644
    249 H151        -1.3760    52.2840   -61.9920 hc       999 UNK       0.023644
    250 H152        -2.7680    51.5440   -65.3950 hc       999 UNK       0.023951
    251 H153        -3.4890    53.1230   -65.1110 hc       999 UNK       0.023951
    252 H154        -2.9840    52.6770   -66.6890 hc       999 UNK       0.023951
    253 H209        -1.7590    58.4550   -58.2470 ho       999 UNK       0.210474
    254 H155       -17.5850    58.4940   -60.0870 hc       999 UNK       0.023592
    255 H156       -17.4680    57.2630   -61.3190 hc       999 UNK       0.023592
    256 H157       -18.9900    58.0620   -61.0120 hc       999 UNK       0.023592
    257 H158       -19.1580    54.5270   -59.5120 hc       999 UNK       0.023592
    258 H159       -20.0530    55.5870   -60.5910 hc       999 UNK       0.023592
    259 H160       -18.4410    55.0280   -61.0300 hc       999 UNK       0.023592
    260 H161        -8.7750    55.3830   -54.0020 hc       999 UNK       0.023698
    261 H162       -10.0390    54.6040   -53.0550 hc       999 UNK       0.023698
    262 H163        -8.5570    53.7670   -53.3470 hc       999 UNK       0.023698
    263 H164       -16.6450    57.1640   -58.5640 hc       999 UNK       0.027849
    264 H165       -16.4700    55.7730   -59.5510 hc       999 UNK       0.027849
    265 H166       -20.3370    57.2480   -58.7940 hc       999 UNK       0.027237
    266 H167       -18.9500    58.0330   -57.9880 hc       999 UNK       0.027237
    267 H168       -12.4730    52.8970   -54.2470 hc       999 UNK       0.027000
    268 H169       -12.1510    54.3700   -53.4140 hc       999 UNK       0.027000
    269 H170       -10.6980    55.0900   -58.0220 hc       999 UNK       0.027329
    270 H171       -10.3690    56.7500   -57.7100 hc       999 UNK       0.027329
    271 H204       -14.9860    54.2900   -58.6590 ha       999 UNK       0.057578
    272 H172       -17.8990    57.6610   -55.8880 hc       999 UNK       0.027789
    273 H173       -18.5690    56.7260   -54.6150 hc       999 UNK       0.027789
    274 H174       -10.4160    51.7580   -55.6660 hc       999 UNK       0.023698
    275 H175        -8.9480    51.8110   -54.6900 hc       999 UNK       0.023698
    276 H176       -10.5380    52.1400   -54.0060 hc       999 UNK       0.023698
    277 H177       -12.9580    55.7330   -58.5720 hc       999 UNK       0.031301
    278 H178       -12.7590    54.2230   -57.7590 hc       999 UNK       0.031301
    279 H179       -20.0440    55.2580   -57.6640 hc       999 UNK       0.027777
    280 H180       -20.2280    56.6270   -56.5640 hc       999 UNK       0.027777
    281 H181       -10.8880    56.5690   -53.9970 hc       999 UNK       0.023623
    282 H182        -9.7940    57.1440   -55.1740 hc       999 UNK       0.023623
    283 H183       -11.3740    57.7810   -55.1680 hc       999 UNK       0.023623
    284 H184       -16.4650    55.4810   -54.2720 hc       999 UNK       0.027597
    285 H185       -16.2960    57.1810   -54.1170 hc       999 UNK       0.027597
    286 H186        -8.4180    56.0790   -56.2270 hc       999 UNK       0.029339
    287 H187        -8.2990    55.4210   -57.8010 hc       999 UNK       0.029339
    288 H205        -9.1930    53.2960   -57.1060 h1       999 UNK       0.060617
    289 H206       -17.3210    54.3180   -57.8090 hc       999 UNK       0.036011
    290 H188       -14.5090    54.2460   -53.9670 hc       999 UNK       0.027265
    291 H189       -14.1770    53.7090   -55.5680 hc       999 UNK       0.027265
    292 H207       -11.5430    53.6240   -56.2590 hc       999 UNK       0.031487
    293 H208       -12.7760    57.0460   -56.7540 hc       999 UNK       0.031750
    294 H190       -13.3910    57.7390   -54.2790 hc       999 UNK       0.023644
    295 H191       -14.4500    56.7280   -53.3060 hc       999 UNK       0.023644
    296 H192       -12.8220    56.3610   -53.4070 hc       999 UNK       0.023644
    297 H193       -14.5100    58.4070   -55.9910 hc       999 UNK       0.023951
    298 H194       -14.6720    57.6760   -57.5430 hc       999 UNK       0.023951
    299 H195       -16.0770    58.2410   -56.7470 hc       999 UNK       0.023951
    300 H210        -6.9690    53.9380   -56.6390 ho       999 UNK       0.210474
    301 H1           1.7510    51.1010   -71.7980 h1       999 UNK       0.049086
    302 H2           2.6590    52.3830   -71.0290 h1       999 UNK       0.049086
    303 H3           1.5680    54.1000   -72.3860 h1       999 UNK       0.058323
    304 H4           2.1570    52.8600   -73.4750 h1       999 UNK       0.058323
    305 H5           0.3740    53.5650   -75.1320 h1       999 UNK       0.059109
    306 H6          -0.0740    54.7860   -73.9580 h1       999 UNK       0.059109
    307 H7          -2.2710    53.2020   -73.7100 h1       999 UNK       0.059110
    308 H8          -1.8190    52.7480   -75.3350 h1       999 UNK       0.059110
    309 H9          -4.3400    54.0280   -74.8410 h1       999 UNK       0.059110
    310 H10         -3.5660    53.6830   -76.3720 h1       999 UNK       0.059110
    311 H11         -4.9310    55.2980   -77.1310 h1       999 UNK       0.059110
    312 H12         -3.6120    56.3520   -76.6750 h1       999 UNK       0.059110
    313 H13         -6.4630    56.9620   -76.9880 h1       999 UNK       0.059110
    314 H14         -5.3600    58.1770   -76.3820 h1       999 UNK       0.059110
    315 H15         -7.8890    57.1310   -75.0030 h1       999 UNK       0.059109
    316 H16         -7.7050    58.6970   -75.7530 h1       999 UNK       0.059109
    317 H17         -7.2300    58.9650   -72.0750 h1       999 UNK       0.058413
    318 H18         -8.4930    58.1750   -72.9710 h1       999 UNK       0.058413
    319 H19         -8.8170    60.2700   -74.3530 h1       999 UNK       0.051515
    320 H20         -7.4700    61.0260   -73.5310 h1       999 UNK       0.051515
    321 H21        -11.1300    60.9640   -73.3660 h4       999 UNK       0.083083
    322 H22        -12.7270    62.5610   -71.5480 h1       999 UNK       0.049925
    323 H23        -12.7800    61.1390   -70.5910 h1       999 UNK       0.049925
    324 H24         -4.6020    73.8260   -56.1270 hn       999 UNK       0.149439
    325 H25         -2.9730    74.5340   -58.5340 h1       999 UNK       0.049086
    326 H26         -3.2200    75.3500   -57.0560 h1       999 UNK       0.049086
    327 H27         -4.6520    76.6340   -58.2580 h1       999 UNK       0.058323
    328 H28         -5.8010    75.4600   -57.7060 h1       999 UNK       0.058323
    329 H29         -6.6600    76.8840   -59.7180 h1       999 UNK       0.059109
    330 H30         -7.2910    75.2550   -59.5710 h1       999 UNK       0.059109
    331 H31         -6.1370    75.0440   -62.0510 h1       999 UNK       0.059110
    332 H32         -6.4560    76.7490   -62.0620 h1       999 UNK       0.059110
    333 H33         -7.7800    75.7540   -63.9650 h1       999 UNK       0.059110
    334 H34         -9.4200    75.4170   -63.4830 h1       999 UNK       0.059110
    335 H35         -8.3070    73.1580   -62.5140 h1       999 UNK       0.059110
    336 H36         -7.1690    73.4590   -63.8210 h1       999 UNK       0.059110
    337 H37         -9.3020    71.2740   -63.4130 h1       999 UNK       0.059110
    338 H38         -8.0440    71.3410   -64.6370 h1       999 UNK       0.059110
    339 H39         -9.6460    71.2330   -66.4360 h1       999 UNK       0.059109
    340 H40        -11.0030    71.5570   -65.3670 h1       999 UNK       0.059109
    341 H41        -11.7970    69.4770   -66.5040 h1       999 UNK       0.058413
    342 H42        -10.2150    69.0810   -67.1550 h1       999 UNK       0.058413
    343 H43        -10.1620    67.0500   -65.5820 h1       999 UNK       0.051515
    344 H44        -11.8310    67.3850   -65.1690 h1       999 UNK       0.051515
    345 H45        -10.4440    64.8150   -67.0030 h4       999 UNK       0.083083
    346 H46        -12.1460    64.5660   -70.6770 h1       999 UNK       0.049925
    347 H47        -10.6970    63.9860   -69.9460 h1       999 UNK       0.049925
    348 H48        -19.9620    53.0600   -54.9210 hn       999 UNK       0.149439
    349 H49        -21.2160    55.6900   -55.0040 h1       999 UNK       0.049086
    350 H50        -21.7770    54.1790   -54.4460 h1       999 UNK       0.049086
    351 H51        -23.1490    54.0210   -56.1960 h1       999 UNK       0.058323
    352 H52        -21.7550    53.5950   -57.1400 h1       999 UNK       0.058323
    353 H53        -23.9260    54.6430   -58.3860 h1       999 UNK       0.059109
    354 H54        -22.3610    54.5590   -59.1640 h1       999 UNK       0.059109
    355 H55        -23.7780    57.2590   -58.8410 h1       999 UNK       0.059110
    356 H56        -24.2560    56.1380   -60.0970 h1       999 UNK       0.059110
    357 H57        -23.2840    58.5990   -60.9840 h1       999 UNK       0.059110
    358 H58        -23.3680    57.2270   -62.0700 h1       999 UNK       0.059110
    359 H59        -20.7170    57.4090   -61.9870 h1       999 UNK       0.059110
    360 H60        -21.0140    59.0730   -61.5540 h1       999 UNK       0.059110
    361 H61        -19.5460    58.1470   -63.7580 h1       999 UNK       0.059110
    362 H62        -19.8940    59.8120   -63.3680 h1       999 UNK       0.059110
    363 H63        -20.5370    60.3160   -65.6420 h1       999 UNK       0.059109
    364 H64        -20.6450    58.6070   -66.0820 h1       999 UNK       0.059109
    365 H65        -18.5170    60.9540   -66.8960 h1       999 UNK       0.058413
    366 H66        -18.7760    59.4560   -67.7880 h1       999 UNK       0.058413
    367 H67        -16.5600    58.6040   -67.1720 h1       999 UNK       0.051515
    368 H68        -16.3420    59.8470   -65.9690 h1       999 UNK       0.051515
    369 H69        -15.1250    62.0460   -66.6940 h4       999 UNK       0.083083
    370 H70        -13.9080    63.7910   -68.4710 h1       999 UNK       0.049925
    371 H71        -14.2510    63.5480   -70.1390 h1       999 UNK       0.049925
    372 H72         -0.9420    56.3650   -66.6260 ha       999 UNK       0.057578
    373 H73         -0.2960    52.4000   -70.8990 hn       999 UNK       0.149439
@<TRIPOS>BOND
     1     1     8 1   
     2     1   161 1   
     3     1   162 1   
     4     1   163 1   
     5     2     8 1   
     6     2   164 1   
     7     2   165 1   
     8     2   166 1   
     9     3    18 1   
    10     3   167 1   
    11     3   168 1   
    12     3   169 1   
    13     4     8 1   
    14     4    20 1   
    15     4   170 1   
    16     4   171 1   
    17     5     8 1   
    18     5    14 1   
    19     5   172 1   
    20     5   173 1   
    21     6    21 1   
    22     6    24 1   
    23     6   174 1   
    24     6   175 1   
    25     7    17 1   
    26     7    22 1   
    27     7   176 1   
    28     7   177 1   
    29     9    10 2   
    30     9    13 1   
    31     9   178 1   
    32    10    20 1   
    33    10    29 1   
    34    11    16 1   
    35    11    25 1   
    36    11   179 1   
    37    11   180 1   
    38    12    18 1   
    39    12   181 1   
    40    12   182 1   
    41    12   183 1   
    42    13    26 1   
    43    13   184 1   
    44    13   185 1   
    45    14    25 1   
    46    14   186 1   
    47    14   187 1   
    48    15    22 1   
    49    15   188 1   
    50    15   189 1   
    51    15   190 1   
    52    16    29 1   
    53    16   191 1   
    54    16   192 1   
    55    17    19 1   
    56    17   193 1   
    57    17   194 1   
    58    18    19 1   
    59    18    24 1   
    60    19    31 1   
    61    19   195 1   
    62    20    25 1   
    63    20   196 1   
    64    21    23 1   
    65    21   197 1   
    66    21   198 1   
    67    22    24 1   
    68    22    26 1   
    69    23    26 1   
    70    23    27 1   
    71    23    29 1   
    72    24   199 1   
    73    25    28 1   
    74    26   200 1   
    75    27   201 1   
    76    27   202 1   
    77    27   203 1   
    78    28    32 2   
    79    28    33 1   
    80    29    30 1   
    81    30   204 1   
    82    30   205 1   
    83    30   206 1   
    84    31   207 1   
    85    33   121 1   
    86    33   324 1   
    87    34    41 1   
    88    34   208 1   
    89    34   209 1   
    90    34   210 1   
    91    35    41 1   
    92    35   211 1   
    93    35   212 1   
    94    35   213 1   
    95    36    51 1   
    96    36   214 1   
    97    36   215 1   
    98    36   216 1   
    99    37    41 1   
   100    37    53 1   
   101    37   217 1   
   102    37   218 1   
   103    38    41 1   
   104    38    47 1   
   105    38   219 1   
   106    38   220 1   
   107    39    54 1   
   108    39    57 1   
   109    39   221 1   
   110    39   222 1   
   111    40    50 1   
   112    40    55 1   
   113    40   223 1   
   114    40   224 1   
   115    42    43 2   
   116    42    46 1   
   117    42   372 1   
   118    43    53 1   
   119    43    62 1   
   120    44    49 1   
   121    44    58 1   
   122    44   225 1   
   123    44   226 1   
   124    45    51 1   
   125    45   227 1   
   126    45   228 1   
   127    45   229 1   
   128    46    59 1   
   129    46   230 1   
   130    46   231 1   
   131    47    58 1   
   132    47   232 1   
   133    47   233 1   
   134    48    55 1   
   135    48   234 1   
   136    48   235 1   
   137    48   236 1   
   138    49    62 1   
   139    49   237 1   
   140    49   238 1   
   141    50    52 1   
   142    50   239 1   
   143    50   240 1   
   144    51    52 1   
   145    51    57 1   
   146    52    64 1   
   147    52   241 1   
   148    53    58 1   
   149    53   242 1   
   150    54    56 1   
   151    54   243 1   
   152    54   244 1   
   153    55    57 1   
   154    55    59 1   
   155    56    59 1   
   156    56    60 1   
   157    56    62 1   
   158    57   245 1   
   159    58    61 1   
   160    59   246 1   
   161    60   247 1   
   162    60   248 1   
   163    60   249 1   
   164    61    65 2   
   165    61    66 1   
   166    62    63 1   
   167    63   250 1   
   168    63   251 1   
   169    63   252 1   
   170    64   253 1   
   171    66   100 1   
   172    66   373 1   
   173    67    74 1   
   174    67   254 1   
   175    67   255 1   
   176    67   256 1   
   177    68    74 1   
   178    68   257 1   
   179    68   258 1   
   180    68   259 1   
   181    69    84 1   
   182    69   260 1   
   183    69   261 1   
   184    69   262 1   
   185    70    74 1   
   186    70    86 1   
   187    70   263 1   
   188    70   264 1   
   189    71    74 1   
   190    71    80 1   
   191    71   265 1   
   192    71   266 1   
   193    72    87 1   
   194    72    90 1   
   195    72   267 1   
   196    72   268 1   
   197    73    83 1   
   198    73    88 1   
   199    73   269 1   
   200    73   270 1   
   201    75    76 2   
   202    75    79 1   
   203    75   271 1   
   204    76    86 1   
   205    76    95 1   
   206    77    82 1   
   207    77    91 1   
   208    77   272 1   
   209    77   273 1   
   210    78    84 1   
   211    78   274 1   
   212    78   275 1   
   213    78   276 1   
   214    79    92 1   
   215    79   277 1   
   216    79   278 1   
   217    80    91 1   
   218    80   279 1   
   219    80   280 1   
   220    81    88 1   
   221    81   281 1   
   222    81   282 1   
   223    81   283 1   
   224    82    95 1   
   225    82   284 1   
   226    82   285 1   
   227    83    85 1   
   228    83   286 1   
   229    83   287 1   
   230    84    85 1   
   231    84    90 1   
   232    85    97 1   
   233    85   288 1   
   234    86    91 1   
   235    86   289 1   
   236    87    89 1   
   237    87   290 1   
   238    87   291 1   
   239    88    90 1   
   240    88    92 1   
   241    89    92 1   
   242    89    93 1   
   243    89    95 1   
   244    90   292 1   
   245    91    94 1   
   246    92   293 1   
   247    93   294 1   
   248    93   295 1   
   249    93   296 1   
   250    94    98 2   
   251    94    99 1   
   252    95    96 1   
   253    96   297 1   
   254    96   298 1   
   255    96   299 1   
   256    97   300 1   
   257    99   141 1   
   258    99   348 1   
   259   100   101 1   
   260   100   301 1   
   261   100   302 1   
   262   101   102 1   
   263   101   303 1   
   264   101   304 1   
   265   102   103 1   
   266   103   104 1   
   267   103   305 1   
   268   103   306 1   
   269   104   105 1   
   270   104   307 1   
   271   104   308 1   
   272   105   106 1   
   273   106   107 1   
   274   106   309 1   
   275   106   310 1   
   276   107   108 1   
   277   107   311 1   
   278   107   312 1   
   279   108   109 1   
   280   109   110 1   
   281   109   313 1   
   282   109   314 1   
   283   110   111 1   
   284   110   315 1   
   285   110   316 1   
   286   111   112 1   
   287   112   113 1   
   288   112   317 1   
   289   112   318 1   
   290   113   114 1   
   291   113   319 1   
   292   113   320 1   
   293   114   115 1   
   294   114   118 1   
   295   115   116 2   
   296   116   117 1   
   297   117   118 2   
   298   117   119 1   
   299   118   321 1   
   300   119   120 1   
   301   119   322 1   
   302   119   323 1   
   303   120   140 1   
   304   120   160 1   
   305   121   122 1   
   306   121   325 1   
   307   121   326 1   
   308   122   123 1   
   309   122   327 1   
   310   122   328 1   
   311   123   124 1   
   312   124   125 1   
   313   124   329 1   
   314   124   330 1   
   315   125   126 1   
   316   125   331 1   
   317   125   332 1   
   318   126   127 1   
   319   127   128 1   
   320   127   333 1   
   321   127   334 1   
   322   128   129 1   
   323   128   335 1   
   324   128   336 1   
   325   129   130 1   
   326   130   131 1   
   327   130   337 1   
   328   130   338 1   
   329   131   132 1   
   330   131   339 1   
   331   131   340 1   
   332   132   133 1   
   333   133   134 1   
   334   133   341 1   
   335   133   342 1   
   336   134   135 1   
   337   134   343 1   
   338   134   344 1   
   339   135   136 1   
   340   135   139 1   
   341   136   137 2   
   342   137   138 1   
   343   138   139 2   
   344   138   140 1   
   345   139   345 1   
   346   140   346 1   
   347   140   347 1   
   348   141   142 1   
   349   141   349 1   
   350   141   350 1   
   351   142   143 1   
   352   142   351 1   
   353   142   352 1   
   354   143   144 1   
   355   144   145 1   
   356   144   353 1   
   357   144   354 1   
   358   145   146 1   
   359   145   355 1   
   360   145   356 1   
   361   146   147 1   
   362   147   148 1   
   363   147   357 1   
   364   147   358 1   
   365   148   149 1   
   366   148   359 1   
   367   148   360 1   
   368   149   150 1   
   369   150   151 1   
   370   150   361 1   
   371   150   362 1   
   372   151   152 1   
   373   151   363 1   
   374   151   364 1   
   375   152   153 1   
   376   153   154 1   
   377   153   365 1   
   378   153   366 1   
   379   154   155 1   
   380   154   367 1   
   381   154   368 1   
   382   155   156 1   
   383   155   159 1   
   384   156   157 2   
   385   157   158 1   
   386   158   159 2   
   387   158   160 1   
   388   159   369 1   
   389   160   370 1   
   390   160   371 1   
@<TRIPOS>SUBSTRUCTURE
     1 UNK         1 TEMP              0 ****  ****    0 ROOT
