@<TRIPOS>MOLECULE
3LZG_tri.pdb
 373 390 0 0 0
SMALL
GASTEIGER

@<TRIPOS>ATOM
      1  C         -5.8960   70.9470  -62.4570 C.3   999  UNK     -0.0598
      2  C         -6.6380   72.2860  -60.5250 C.3   999  UNK     -0.0598
      3  C         -3.9340   62.9500  -53.7810 C.3   999  UNK     -0.0572
      4  C         -5.5660   70.0570  -60.0710 C.3   999  UNK     -0.0404
      5  C         -4.1420   71.8230  -60.9940 C.3   999  UNK     -0.0469
      6  C         -4.3680   66.1820  -54.1740 C.3   999  UNK     -0.0486
      7  C         -6.2420   63.8600  -56.7240 C.3   999  UNK     -0.0447
      8  C         -5.5720   71.2830  -60.9970 C.3   999  UNK     -0.0343
      9  C         -6.2330   68.3520  -57.5130 C.2   999  UNK     -0.0836
     10  C         -5.1050   69.0210  -57.7930 C.2   999  UNK     -0.0629
     11  C         -2.6120   70.5890  -58.2270 C.3   999  UNK     -0.0377
     12  C         -5.6800   64.0930  -52.4580 C.3   999  UNK     -0.0572
     13  C         -6.3230   66.8950  -57.0590 C.3   999  UNK     -0.0306
     14  C         -3.7620   72.3260  -59.6190 C.3   999  UNK     -0.0380
     15  C         -3.7590   63.9030  -56.7110 C.3   999  UNK     -0.0590
     16  C         -2.6670   69.3710  -57.2740 C.3   999  UNK     -0.0424
     17  C         -6.3750   62.5260  -55.9410 C.3   999  UNK     -0.0258
     18  C         -5.2850   63.6900  -53.8840 C.3   999  UNK     -0.0056
     19  C         -6.3940   62.7320  -54.4160 C.3   999  UNK      0.0606
     20  C         -5.1580   70.3560  -58.5910 C.3   999  UNK     -0.0050
     21  C         -4.2210   67.4540  -55.0730 C.3   999  UNK     -0.0463
     22  C         -5.0220   64.7270  -56.2850 C.3   999  UNK     -0.0250
     23  C         -3.8290   67.1070  -56.5360 C.3   999  UNK     -0.0194
     24  C         -5.2170   64.9970  -54.7570 C.3   999  UNK     -0.0278
     25  C         -3.9380   71.3670  -58.4060 C.3   999  UNK      0.0535
     26  C         -4.9650   66.1170  -57.0210 C.3   999  UNK     -0.0257
     27  C         -2.3810   66.5260  -56.3970 C.3   999  UNK     -0.0585
     28  C         -4.1790   72.2050  -57.1090 C.2   999  UNK      0.2198
     29  C         -3.7700   68.3170  -57.5910 C.3   999  UNK     -0.0051
     30  C         -3.5160   67.7090  -58.9710 C.3   999  UNK     -0.0553
     31  O         -6.3500   61.4640  -53.7590 O.3   999  UNK     -0.3912
     32  O         -4.4620   71.5790  -56.0940 O.2   999  UNK     -0.2752
     33  N1        -4.1590   73.5540  -56.9970 N.am  999  UNK     -0.3126
     34  C         -3.3310   55.1970  -70.7170 C.3   999  UNK     -0.0598
     35  C         -0.9510   54.9600  -70.8970 C.3   999  UNK     -0.0598
     36  C         -1.1320   54.7970  -58.9390 C.3   999  UNK     -0.0572
     37  C         -2.0530   54.6420  -68.6280 C.3   999  UNK     -0.0404
     38  C         -2.2840   52.8630  -70.3870 C.3   999  UNK     -0.0469
     39  C          0.2760   54.2980  -61.8380 C.3   999  UNK     -0.0486
     40  C         -2.6650   56.8130  -61.8750 C.3   999  UNK     -0.0447
     41  C         -2.1500   54.3910  -70.1430 C.3   999  UNK     -0.0343
     42  C         -1.1150   55.5660  -65.9230 C.2   999  UNK     -0.0836
     43  C         -1.0660   54.2890  -66.3550 C.2   999  UNK     -0.0629
     44  C         -0.5280   51.4390  -67.1310 C.3   999  UNK     -0.0377
     45  C          0.8400   56.1710  -59.5340 C.3   999  UNK     -0.0572
     46  C         -1.4570   56.0220  -64.5090 C.3   999  UNK     -0.0306
     47  C         -1.8300   51.9550  -69.2140 C.3   999  UNK     -0.0380
     48  C         -3.0840   54.4240  -61.3010 C.3   999  UNK     -0.0590
     49  C         -0.2240   52.0820  -65.7690 C.3   999  UNK     -0.0424
     50  C         -2.6980   57.3100  -60.4040 C.3   999  UNK     -0.0258
     51  C         -0.6110   55.8900  -59.9110 C.3   999  UNK     -0.0056
     52  C         -1.3430   57.2360  -59.6990 C.3   999  UNK      0.0606
     53  C         -0.8730   53.9600  -67.8710 C.3   999  UNK     -0.0050
     54  C          0.2260   53.8500  -63.3230 C.3   999  UNK     -0.0463
     55  C         -2.0960   55.3740  -62.0470 C.3   999  UNK     -0.0250
     56  C         -1.2060   53.5640  -63.8290 C.3   999  UNK     -0.0194
     57  C         -0.6620   55.4650  -61.4330 C.3   999  UNK     -0.0278
     58  C         -0.6230   52.4390  -68.3340 C.3   999  UNK      0.0535
     59  C         -2.0000   54.9110  -63.5690 C.3   999  UNK     -0.0257
     60  C         -1.7380   52.3440  -63.0110 C.3   999  UNK     -0.0585
     61  C          0.6980   52.2420  -69.1710 C.2   999  UNK      0.2198
     62  C         -1.2850   53.1430  -65.3750 C.3   999  UNK     -0.0051
     63  C         -2.7060   52.5980  -65.6490 C.3   999  UNK     -0.0553
     64  O         -1.4750   57.5470  -58.3070 O.3   999  UNK     -0.3912
     65  O          1.7640   52.0010  -68.6130 O.2   999  UNK     -0.2752
     66  N2         0.6140   52.2080  -70.5090 N.am  999  UNK     -0.3126
     67  C        -18.1140   57.6540  -60.5320 C.3   999  UNK     -0.0598
     68  C        -19.0630   55.3640  -60.2000 C.3   999  UNK     -0.0598
     69  C         -9.2730   54.4330  -53.8070 C.3   999  UNK     -0.0572
     70  C        -17.1250   56.2210  -58.8040 C.3   999  UNK     -0.0404
     71  C        -19.3440   57.0960  -58.3840 C.3   999  UNK     -0.0469
     72  C        -12.3990   53.9710  -54.3930 C.3   999  UNK     -0.0486
     73  C        -10.3610   55.7730  -57.2430 C.3   999  UNK     -0.0447
     74  C        -18.4350   56.5680  -59.4850 C.3   999  UNK     -0.0343
     75  C        -14.7250   54.8800  -57.8010 C.2   999  UNK     -0.0836
     76  C        -15.6960   55.3980  -57.0260 C.2   999  UNK     -0.0629
     77  C        -17.8550   56.6800  -55.4390 C.3   999  UNK     -0.0377
     78  C         -9.9150   52.2830  -54.8630 C.3   999  UNK     -0.0572
     79  C        -13.2460   55.1850  -57.6770 C.3   999  UNK     -0.0306
     80  C        -19.5460   56.1250  -57.2400 C.3   999  UNK     -0.0380
     81  C        -10.8280   56.8480  -55.0430 C.3   999  UNK     -0.0590
     82  C        -16.4560   56.4030  -54.8510 C.3   999  UNK     -0.0424
     83  C         -8.9090   55.3810  -56.9010 C.3   999  UNK     -0.0258
     84  C         -9.8330   53.7850  -55.0940 C.3   999  UNK     -0.0056
     85  C         -8.8860   53.9730  -56.3120 C.3   999  UNK      0.0606
     86  C        -17.1520   55.3460  -57.5120 C.3   999  UNK     -0.0050
     87  C        -13.8300   54.4040  -54.8050 C.3   999  UNK     -0.0463
     88  C        -11.3220   55.7280  -56.0120 C.3   999  UNK     -0.0250
     89  C        -13.9010   55.8780  -55.2880 C.3   999  UNK     -0.0194
     90  C        -11.2750   54.2800  -55.4370 C.3   999  UNK     -0.0278
     91  C        -18.3080   55.6330  -56.4660 C.3   999  UNK      0.0535
     92  C        -12.8080   56.0110  -56.4250 C.3   999  UNK     -0.0257
     93  C        -13.6340   56.7220  -54.0210 C.3   999  UNK     -0.0585
     94  C        -18.7010   54.3570  -55.6420 C.2   999  UNK      0.2198
     95  C        -15.3040   56.3410  -55.8990 C.3   999  UNK     -0.0051
     96  C        -15.1410   57.7390  -56.5610 C.3   999  UNK     -0.0553
     97  O         -7.5660   53.6220  -55.9650 O.3   999  UNK     -0.3912
     98  O        -17.8060   53.6360  -55.2160 O.2   999  UNK     -0.2752
     99  N3       -19.9660   53.9760  -55.3440 N.am  999  UNK     -0.3126
    100  C1         1.6950   52.1370  -71.4790 C.3   999  UNK      0.0350
    101  C2         1.4280   53.0620  -72.6880 C.3   999  UNK      0.0633
    102  O1         0.1000   52.8720  -73.1870 O.3   999  UNK     -0.3760
    103  C3        -0.2500   53.7510  -74.2570 C.3   999  UNK      0.0711
    104  C4        -1.7440   53.5510  -74.5990 C.3   999  UNK      0.0711
    105  O2        -2.4080   54.7450  -75.0470 O.3   999  UNK     -0.3752
    106  C5        -3.6900   54.4510  -75.6050 C.3   999  UNK      0.0711
    107  C6        -4.3630   55.6690  -76.2750 C.3   999  UNK      0.0711
    108  O3        -5.2700   56.3490  -75.3970 O.3   999  UNK     -0.3752
    109  C7        -6.0240   57.3680  -76.0740 C.3   999  UNK      0.0711
    110  C8        -7.1710   57.9240  -75.2000 C.3   999  UNK      0.0711
    111  O4        -6.6740   58.4650  -73.9760 O.3   999  UNK     -0.3757
    112  C9        -7.6940   58.9130  -73.0610 C.3   999  UNK      0.0673
    113  C10       -8.2780   60.3040  -73.4070 C.3   999  UNK      0.0665
    114  N4        -9.1830   60.8250  -72.3850 N.ar  999  UNK     -0.2492
    115  N5        -8.7070   61.1420  -71.1560 N.ar  999  UNK     -0.0653
    116  N6        -9.6990   61.6090  -70.4640 N.ar  999  UNK     -0.1332
    117  C11      -10.8560   61.6080  -71.2450 C.ar  999  UNK      0.0968
    118  C12      -10.5300   61.1220  -72.4820 C.ar  999  UNK      0.0500
    119  C13      -12.2080   62.0510  -70.7340 C.3   999  UNK      0.0453
    120  N7       -12.3760   62.8580  -69.5150 N.3   999  UNK     -0.2851
    121  C14       -3.7370   74.7270  -57.7860 C.3   999  UNK      0.0350
    122  C15       -4.9210   75.5800  -58.3330 C.3   999  UNK      0.0633
    123  O5        -5.2570   75.3400  -59.7030 O.3   999  UNK     -0.3760
    124  C16       -6.5350   75.8600  -60.0740 C.3   999  UNK      0.0711
    125  C17       -6.7700   75.8100  -61.6040 C.3   999  UNK      0.0711
    126  O6        -8.1510   75.5540  -61.9050 O.3   999  UNK     -0.3752
    127  C18       -8.3810   75.1710  -63.2650 C.3   999  UNK      0.0711
    128  C19       -8.1820   73.6550  -63.4740 C.3   999  UNK      0.0711
    129  O7        -9.1410   73.0940  -64.3680 O.3   999  UNK     -0.3752
    130  C20       -9.0600   71.6640  -64.4020 C.3   999  UNK      0.0711
    131  C21      -10.0340   71.0610  -65.4310 C.3   999  UNK      0.0711
    132  O8       -10.2230   69.6680  -65.1810 O.3   999  UNK     -0.3757
    133  C22      -10.8480   68.9910  -66.2710 C.3   999  UNK      0.0673
    134  C23      -11.0850   67.4920  -65.9570 C.3   999  UNK      0.0665
    135  N8       -11.5230   66.7190  -67.1200 N.ar  999  UNK     -0.2492
    136  N9       -12.4460   67.2390  -67.9650 N.ar  999  UNK     -0.0653
    137  N10      -12.6050   66.3920  -68.9310 N.ar  999  UNK     -0.1332
    138  C24      -11.8080   65.2740  -68.7150 C.ar  999  UNK      0.0968
    139  C25      -11.1460   65.4460  -67.5300 C.ar  999  UNK      0.0500
    140  C26      -11.7510   64.1670  -69.7400 C.3   999  UNK      0.0453
    141  C27      -21.2780   54.6440  -55.2960 C.3   999  UNK      0.0350
    142  C28      -22.1820   54.3950  -56.5360 C.3   999  UNK      0.0633
    143  O9       -22.4260   55.5630  -57.3420 O.3   999  UNK     -0.3760
    144  C29      -23.0220   55.2170  -58.5960 C.3   999  UNK      0.0711
    145  C30      -23.4200   56.4380  -59.4630 C.3   999  UNK      0.0711
    146  O10      -22.3510   56.8660  -60.3100 O.3   999  UNK     -0.3752
    147  C31      -22.7210   57.7520  -61.3690 C.3   999  UNK      0.0711
    148  C32      -21.4350   58.2210  -62.0760 C.3   999  UNK      0.0711
    149  O11      -21.5410   58.5350  -63.4650 O.3   999  UNK     -0.3752
    150  C33      -20.2510   58.9590  -63.9490 C.3   999  UNK      0.0711
    151  C34      -20.1280   59.3240  -65.4430 C.3   999  UNK      0.0711
    152  O12      -18.7310   59.2680  -65.7040 O.3   999  UNK     -0.3757
    153  C35      -18.2860   59.8880  -66.9140 C.3   999  UNK      0.0673
    154  C36      -16.7600   59.6540  -66.9570 C.3   999  UNK      0.0665
    155  N11      -16.0160   60.4730  -67.9070 N.ar  999  UNK     -0.2492
    156  N12      -15.9570   60.1170  -69.2120 N.ar  999  UNK     -0.0653
    157  N13      -15.1490   60.9460  -69.8030 N.ar  999  UNK     -0.1332
    158  C37      -14.7070   61.8990  -68.8850 C.ar  999  UNK      0.0968
    159  C38      -15.2300   61.5860  -67.6630 C.ar  999  UNK      0.0500
    160  C39      -13.8140   63.0530  -69.2690 C.3   999  UNK      0.0453
    161 1HXT       -5.1160   70.3300  -62.8930 H     999  UNK      0.0235
    162 2HXT       -6.8640   70.4590  -62.5650 H     999  UNK      0.0235
    163 3HXT       -5.9090   71.8440  -63.0720 H     999  UNK      0.0235
    164 1HXT       -6.5520   72.5650  -59.4760 H     999  UNK      0.0235
    165 2HXT       -6.5660   73.1990  -61.0960 H     999  UNK      0.0235
    166 3HXT       -7.6380   71.8820  -60.6670 H     999  UNK      0.0235
    167 1HXT       -3.7340   62.3050  -54.6350 H     999  UNK      0.0236
    168 2HXT       -3.0920   63.6280  -53.6550 H     999  UNK      0.0236
    169 3HXT       -3.9470   62.3040  -52.9170 H     999  UNK      0.0236
    170 1HXT       -4.8840   69.3360  -60.5040 H     999  UNK      0.0276
    171 2HXT       -6.5490   69.5850  -60.0900 H     999  UNK      0.0276
    172 1HXT       -4.0430   72.6410  -61.7100 H     999  UNK      0.0271
    173 2HXT       -3.4340   71.0620  -61.3170 H     999  UNK      0.0271
    174 1HXT       -4.8330   66.5240  -53.2500 H     999  UNK      0.0268
    175 2HXT       -3.3920   65.8260  -53.8590 H     999  UNK      0.0268
    176 1HXT       -7.1680   64.4130  -56.5700 H     999  UNK      0.0271
    177 2HXT       -6.1950   63.6540  -57.7920 H     999  UNK      0.0271
    178  HXT       -7.1540   68.8580  -57.7110 H     999  UNK      0.0572
    179 1HXT       -2.2310   70.2940  -59.2030 H     999  UNK      0.0276
    180 2HXT       -1.8470   71.2690  -57.8500 H     999  UNK      0.0276
    181 1HXT       -6.5380   64.7560  -52.4380 H     999  UNK      0.0236
    182 2HXT       -5.8930   63.2400  -51.8150 H     999  UNK      0.0236
    183 3HXT       -4.8720   64.6550  -52.0180 H     999  UNK      0.0236
    184 1HXT       -7.0020   66.3910  -57.7430 H     999  UNK      0.0310
    185 2HXT       -6.8240   66.9000  -56.0930 H     999  UNK      0.0310
    186 1HXT       -4.4210   73.1690  -59.5130 H     999  UNK      0.0276
    187 2HXT       -2.7430   72.7090  -59.6630 H     999  UNK      0.0276
    188 1HXT       -2.9410   63.9480  -56.0020 H     999  UNK      0.0235
    189 2HXT       -3.9280   62.8400  -56.8420 H     999  UNK      0.0235
    190 3HXT       -3.3590   64.2170  -57.6740 H     999  UNK      0.0235
    191 1HXT       -2.7780   69.7120  -56.2460 H     999  UNK      0.0274
    192 2HXT       -1.6760   68.9290  -57.3340 H     999  UNK      0.0274
    193 1HXT       -5.5920   61.8180  -56.2030 H     999  UNK      0.0290
    194 2HXT       -7.2990   62.0330  -56.2440 H     999  UNK      0.0290
    195  HXT       -7.3610   63.1670  -54.1820 H     999  UNK      0.0599
    196  HXT       -6.0330   70.8580  -58.1750 H     999  UNK      0.0356
    197 1HXT       -3.4760   68.1160  -54.6330 H     999  UNK      0.0271
    198 2HXT       -5.1440   68.0300  -55.0320 H     999  UNK      0.0271
    199  HXT       -6.2290   65.3940  -54.6790 H     999  UNK      0.0312
    200  HXT       -4.7840   65.8290  -58.0510 H     999  UNK      0.0315
    201 1HXT       -2.0150   66.0240  -57.2800 H     999  UNK      0.0235
    202 2HXT       -1.6480   67.2740  -56.1130 H     999  UNK      0.0235
    203 3HXT       -2.2580   65.8110  -55.5970 H     999  UNK      0.0235
    204 1HXT       -2.8740   66.8470  -58.9440 H     999  UNK      0.0238
    205 2HXT       -4.4200   67.3680  -59.4680 H     999  UNK      0.0238
    206 3HXT       -3.1100   68.4540  -59.6170 H     999  UNK      0.0238
    207  HO        -7.1020   60.9650  -54.0810 H     999  UNK      0.2098
    208 1HXT       -3.5220   54.9590  -71.7640 H     999  UNK      0.0235
    209 2HXT       -4.2260   55.0740  -70.1320 H     999  UNK      0.0235
    210 3HXT       -3.1350   56.2710  -70.6600 H     999  UNK      0.0235
    211 1HXT       -0.0010   54.6960  -70.4470 H     999  UNK      0.0235
    212 2HXT       -0.9510   54.6280  -71.9240 H     999  UNK      0.0235
    213 3HXT       -0.9930   56.0420  -70.9590 H     999  UNK      0.0235
    214 1HXT       -2.2110   54.8380  -58.7990 H     999  UNK      0.0236
    215 2HXT       -0.8770   53.7910  -59.2680 H     999  UNK      0.0236
    216 3HXT       -0.6950   54.9110  -57.9520 H     999  UNK      0.0236
    217 1HXT       -2.9790   54.3120  -68.1650 H     999  UNK      0.0276
    218 2HXT       -2.0490   55.7110  -68.4420 H     999  UNK      0.0276
    219 1HXT       -1.7920   52.5740  -71.3150 H     999  UNK      0.0271
    220 2HXT       -3.3090   52.5790  -70.5530 H     999  UNK      0.0271
    221 1HXT        1.2920   54.6410  -61.6780 H     999  UNK      0.0268
    222 2HXT        0.1550   53.4480  -61.1720 H     999  UNK      0.0268
    223 1HXT       -2.0410   57.5190  -62.4200 H     999  UNK      0.0271
    224 2HXT       -3.6440   56.9080  -62.3330 H     999  UNK      0.0271
    225 1HXT       -1.4350   50.8430  -67.0470 H     999  UNK      0.0276
    226 2HXT        0.2200   50.6620  -67.3020 H     999  UNK      0.0276
    227 1HXT        1.3420   56.8290  -60.2410 H     999  UNK      0.0236
    228 2HXT        0.9620   56.5860  -58.5340 H     999  UNK      0.0236
    229 3HXT        1.3460   55.2300  -59.5710 H     999  UNK      0.0236
    230 1HXT       -2.1920   56.8210  -64.6050 H     999  UNK      0.0310
    231 2HXT       -0.5640   56.4890  -64.1070 H     999  UNK      0.0310
    232 1HXT       -1.6240   50.9540  -69.6000 H     999  UNK      0.0276
    233 2HXT       -2.7020   51.8060  -68.5800 H     999  UNK      0.0276
    234 1HXT       -2.6010   53.5510  -60.8750 H     999  UNK      0.0235
    235 2HXT       -3.6090   54.8650  -60.4610 H     999  UNK      0.0235
    236 3HXT       -3.8740   54.0700  -61.9580 H     999  UNK      0.0235
    237 1HXT        0.7660   52.5400  -65.8050 H     999  UNK      0.0274
    238 2HXT       -0.1410   51.2830  -65.0360 H     999  UNK      0.0274
    239 1HXT       -3.4710   56.8230  -59.8120 H     999  UNK      0.0290
    240 2HXT       -2.9520   58.3580  -60.4160 H     999  UNK      0.0290
    241  HXT       -0.7340   58.0260  -60.1370 H     999  UNK      0.0599
    242  HXT        0.0260   54.5170  -68.1360 H     999  UNK      0.0356
    243 1HXT        0.8420   52.9640  -63.4430 H     999  UNK      0.0271
    244 2HXT        0.7100   54.6070  -63.9400 H     999  UNK      0.0271
    245  HXT       -0.1970   56.3070  -61.9480 H     999  UNK      0.0312
    246  HXT       -3.0270   54.7680  -63.8950 H     999  UNK      0.0315
    247 1HXT       -2.8180   52.3570  -62.9490 H     999  UNK      0.0235
    248 2HXT       -1.4690   51.3790  -63.4300 H     999  UNK      0.0235
    249 3HXT       -1.3760   52.2840  -61.9920 H     999  UNK      0.0235
    250 1HXT       -2.7680   51.5440  -65.3950 H     999  UNK      0.0238
    251 2HXT       -3.4890   53.1230  -65.1110 H     999  UNK      0.0238
    252 3HXT       -2.9840   52.6770  -66.6890 H     999  UNK      0.0238
    253  HO        -1.7590   58.4550  -58.2470 H     999  UNK      0.2098
    254 1HXT      -17.5850   58.4940  -60.0870 H     999  UNK      0.0235
    255 2HXT      -17.4680   57.2630  -61.3190 H     999  UNK      0.0235
    256 3HXT      -18.9900   58.0620  -61.0120 H     999  UNK      0.0235
    257 1HXT      -19.1580   54.5270  -59.5120 H     999  UNK      0.0235
    258 2HXT      -20.0530   55.5870  -60.5910 H     999  UNK      0.0235
    259 3HXT      -18.4410   55.0280  -61.0300 H     999  UNK      0.0235
    260 1HXT       -8.7750   55.3830  -54.0020 H     999  UNK      0.0236
    261 2HXT      -10.0390   54.6040  -53.0550 H     999  UNK      0.0236
    262 3HXT       -8.5570   53.7670  -53.3470 H     999  UNK      0.0236
    263 1HXT      -16.6450   57.1640  -58.5640 H     999  UNK      0.0276
    264 2HXT      -16.4700   55.7730  -59.5510 H     999  UNK      0.0276
    265 1HXT      -20.3370   57.2480  -58.7940 H     999  UNK      0.0271
    266 2HXT      -18.9500   58.0330  -57.9880 H     999  UNK      0.0271
    267 1HXT      -12.4730   52.8970  -54.2470 H     999  UNK      0.0268
    268 2HXT      -12.1510   54.3700  -53.4140 H     999  UNK      0.0268
    269 1HXT      -10.6980   55.0900  -58.0220 H     999  UNK      0.0271
    270 2HXT      -10.3690   56.7500  -57.7100 H     999  UNK      0.0271
    271  HXT      -14.9860   54.2900  -58.6590 H     999  UNK      0.0572
    272 1HXT      -17.8990   57.6610  -55.8880 H     999  UNK      0.0276
    273 2HXT      -18.5690   56.7260  -54.6150 H     999  UNK      0.0276
    274 1HXT      -10.4160   51.7580  -55.6660 H     999  UNK      0.0236
    275 2HXT       -8.9480   51.8110  -54.6900 H     999  UNK      0.0236
    276 3HXT      -10.5380   52.1400  -54.0060 H     999  UNK      0.0236
    277 1HXT      -12.9580   55.7330  -58.5720 H     999  UNK      0.0310
    278 2HXT      -12.7590   54.2230  -57.7590 H     999  UNK      0.0310
    279 1HXT      -20.0440   55.2580  -57.6640 H     999  UNK      0.0276
    280 2HXT      -20.2280   56.6270  -56.5640 H     999  UNK      0.0276
    281 1HXT      -10.8880   56.5690  -53.9970 H     999  UNK      0.0235
    282 2HXT       -9.7940   57.1440  -55.1740 H     999  UNK      0.0235
    283 3HXT      -11.3740   57.7810  -55.1680 H     999  UNK      0.0235
    284 1HXT      -16.4650   55.4810  -54.2720 H     999  UNK      0.0274
    285 2HXT      -16.2960   57.1810  -54.1170 H     999  UNK      0.0274
    286 1HXT       -8.4180   56.0790  -56.2270 H     999  UNK      0.0290
    287 2HXT       -8.2990   55.4210  -57.8010 H     999  UNK      0.0290
    288  HXT       -9.1930   53.2960  -57.1060 H     999  UNK      0.0599
    289  HXT      -17.3210   54.3180  -57.8090 H     999  UNK      0.0356
    290 1HXT      -14.5090   54.2460  -53.9670 H     999  UNK      0.0271
    291 2HXT      -14.1770   53.7090  -55.5680 H     999  UNK      0.0271
    292  HXT      -11.5430   53.6240  -56.2590 H     999  UNK      0.0312
    293  HXT      -12.7760   57.0460  -56.7540 H     999  UNK      0.0315
    294 1HXT      -13.3910   57.7390  -54.2790 H     999  UNK      0.0235
    295 2HXT      -14.4500   56.7280  -53.3060 H     999  UNK      0.0235
    296 3HXT      -12.8220   56.3610  -53.4070 H     999  UNK      0.0235
    297 1HXT      -14.5100   58.4070  -55.9910 H     999  UNK      0.0238
    298 2HXT      -14.6720   57.6760  -57.5430 H     999  UNK      0.0238
    299 3HXT      -16.0770   58.2410  -56.7470 H     999  UNK      0.0238
    300  HO        -6.9690   53.9380  -56.6390 H     999  UNK      0.2098
    301  H1         1.7510   51.1010  -71.7980 H     999  UNK      0.0484
    302  H2         2.6590   52.3830  -71.0290 H     999  UNK      0.0484
    303  H3         1.5680   54.1000  -72.3860 H     999  UNK      0.0575
    304  H4         2.1570   52.8600  -73.4750 H     999  UNK      0.0575
    305  H5         0.3740   53.5650  -75.1320 H     999  UNK      0.0583
    306  H6        -0.0740   54.7860  -73.9580 H     999  UNK      0.0583
    307  H7        -2.2710   53.2020  -73.7100 H     999  UNK      0.0583
    308  H8        -1.8190   52.7480  -75.3350 H     999  UNK      0.0583
    309  H9        -4.3400   54.0280  -74.8410 H     999  UNK      0.0583
    310  H10       -3.5660   53.6830  -76.3720 H     999  UNK      0.0583
    311  H11       -4.9310   55.2980  -77.1310 H     999  UNK      0.0583
    312  H12       -3.6120   56.3520  -76.6750 H     999  UNK      0.0583
    313  H13       -6.4630   56.9620  -76.9880 H     999  UNK      0.0583
    314  H14       -5.3600   58.1770  -76.3820 H     999  UNK      0.0583
    315  H15       -7.8890   57.1310  -75.0030 H     999  UNK      0.0583
    316  H16       -7.7050   58.6970  -75.7530 H     999  UNK      0.0583
    317  H17       -7.2300   58.9650  -72.0750 H     999  UNK      0.0578
    318  H18       -8.4930   58.1750  -72.9710 H     999  UNK      0.0578
    319  H19       -8.8170   60.2700  -74.3530 H     999  UNK      0.0532
    320  H20       -7.4700   61.0260  -73.5310 H     999  UNK      0.0532
    321  H21      -11.1300   60.9640  -73.3660 H     999  UNK      0.0846
    322  H22      -12.7270   62.5610  -71.5480 H     999  UNK      0.0492
    323  H23      -12.7800   61.1390  -70.5910 H     999  UNK      0.0492
    324  H24       -4.6020   73.8260  -56.1270 H     999  UNK      0.1488
    325  H25       -2.9730   74.5340  -58.5340 H     999  UNK      0.0484
    326  H26       -3.2200   75.3500  -57.0560 H     999  UNK      0.0484
    327  H27       -4.6520   76.6340  -58.2580 H     999  UNK      0.0575
    328  H28       -5.8010   75.4600  -57.7060 H     999  UNK      0.0575
    329  H29       -6.6600   76.8840  -59.7180 H     999  UNK      0.0583
    330  H30       -7.2910   75.2550  -59.5710 H     999  UNK      0.0583
    331  H31       -6.1370   75.0440  -62.0510 H     999  UNK      0.0583
    332  H32       -6.4560   76.7490  -62.0620 H     999  UNK      0.0583
    333  H33       -7.7800   75.7540  -63.9650 H     999  UNK      0.0583
    334  H34       -9.4200   75.4170  -63.4830 H     999  UNK      0.0583
    335  H35       -8.3070   73.1580  -62.5140 H     999  UNK      0.0583
    336  H36       -7.1690   73.4590  -63.8210 H     999  UNK      0.0583
    337  H37       -9.3020   71.2740  -63.4130 H     999  UNK      0.0583
    338  H38       -8.0440   71.3410  -64.6370 H     999  UNK      0.0583
    339  H39       -9.6460   71.2330  -66.4360 H     999  UNK      0.0583
    340  H40      -11.0030   71.5570  -65.3670 H     999  UNK      0.0583
    341  H41      -11.7970   69.4770  -66.5040 H     999  UNK      0.0578
    342  H42      -10.2150   69.0810  -67.1550 H     999  UNK      0.0578
    343  H43      -10.1620   67.0500  -65.5820 H     999  UNK      0.0532
    344  H44      -11.8310   67.3850  -65.1690 H     999  UNK      0.0532
    345  H45      -10.4440   64.8150  -67.0030 H     999  UNK      0.0846
    346  H46      -12.1460   64.5660  -70.6770 H     999  UNK      0.0492
    347  H47      -10.6970   63.9860  -69.9460 H     999  UNK      0.0492
    348  H48      -19.9620   53.0600  -54.9210 H     999  UNK      0.1488
    349  H49      -21.2160   55.6900  -55.0040 H     999  UNK      0.0484
    350  H50      -21.7770   54.1790  -54.4460 H     999  UNK      0.0484
    351  H51      -23.1490   54.0210  -56.1960 H     999  UNK      0.0575
    352  H52      -21.7550   53.5950  -57.1400 H     999  UNK      0.0575
    353  H53      -23.9260   54.6430  -58.3860 H     999  UNK      0.0583
    354  H54      -22.3610   54.5590  -59.1640 H     999  UNK      0.0583
    355  H55      -23.7780   57.2590  -58.8410 H     999  UNK      0.0583
    356  H56      -24.2560   56.1380  -60.0970 H     999  UNK      0.0583
    357  H57      -23.2840   58.5990  -60.9840 H     999  UNK      0.0583
    358  H58      -23.3680   57.2270  -62.0700 H     999  UNK      0.0583
    359  H59      -20.7170   57.4090  -61.9870 H     999  UNK      0.0583
    360  H60      -21.0140   59.0730  -61.5540 H     999  UNK      0.0583
    361  H61      -19.5460   58.1470  -63.7580 H     999  UNK      0.0583
    362  H62      -19.8940   59.8120  -63.3680 H     999  UNK      0.0583
    363  H63      -20.5370   60.3160  -65.6420 H     999  UNK      0.0583
    364  H64      -20.6450   58.6070  -66.0820 H     999  UNK      0.0583
    365  H65      -18.5170   60.9540  -66.8960 H     999  UNK      0.0578
    366  H66      -18.7760   59.4560  -67.7880 H     999  UNK      0.0578
    367  H67      -16.5600   58.6040  -67.1720 H     999  UNK      0.0532
    368  H68      -16.3420   59.8470  -65.9690 H     999  UNK      0.0532
    369  H69      -15.1250   62.0460  -66.6940 H     999  UNK      0.0846
    370  H70      -13.9080   63.7910  -68.4710 H     999  UNK      0.0492
    371  H71      -14.2510   63.5480  -70.1390 H     999  UNK      0.0492
    372  H72       -0.9420   56.3650  -66.6260 H     999  UNK      0.0572
    373  H73       -0.2960   52.4000  -70.8990 H     999  UNK      0.1488
@<TRIPOS>BOND
     1     1     8    1
     2     1   161    1
     3     1   162    1
     4     1   163    1
     5     2     8    1
     6     2   164    1
     7     2   165    1
     8     2   166    1
     9     3    18    1
    10     3   167    1
    11     3   168    1
    12     3   169    1
    13     4     8    1
    14     4    20    1
    15     4   170    1
    16     4   171    1
    17     5     8    1
    18     5    14    1
    19     5   172    1
    20     5   173    1
    21     6    21    1
    22     6    24    1
    23     6   174    1
    24     6   175    1
    25     7    17    1
    26     7    22    1
    27     7   176    1
    28     7   177    1
    29     9    10    2
    30     9    13    1
    31     9   178    1
    32    10    20    1
    33    10    29    1
    34    11    16    1
    35    11    25    1
    36    11   179    1
    37    11   180    1
    38    12    18    1
    39    12   181    1
    40    12   182    1
    41    12   183    1
    42    13    26    1
    43    13   184    1
    44    13   185    1
    45    14    25    1
    46    14   186    1
    47    14   187    1
    48    15    22    1
    49    15   188    1
    50    15   189    1
    51    15   190    1
    52    16    29    1
    53    16   191    1
    54    16   192    1
    55    17    19    1
    56    17   193    1
    57    17   194    1
    58    18    19    1
    59    18    24    1
    60    19    31    1
    61    19   195    1
    62    20    25    1
    63    20   196    1
    64    21    23    1
    65    21   197    1
    66    21   198    1
    67    22    24    1
    68    22    26    1
    69    23    26    1
    70    23    27    1
    71    23    29    1
    72    24   199    1
    73    25    28    1
    74    26   200    1
    75    27   201    1
    76    27   202    1
    77    27   203    1
    78    28    32    2
    79    28    33   am
    80    29    30    1
    81    30   204    1
    82    30   205    1
    83    30   206    1
    84    31   207    1
    85    33   121    1
    86    33   324    1
    87    34    41    1
    88    34   208    1
    89    34   209    1
    90    34   210    1
    91    35    41    1
    92    35   211    1
    93    35   212    1
    94    35   213    1
    95    36    51    1
    96    36   214    1
    97    36   215    1
    98    36   216    1
    99    37    41    1
   100    37    53    1
   101    37   217    1
   102    37   218    1
   103    38    41    1
   104    38    47    1
   105    38   219    1
   106    38   220    1
   107    39    54    1
   108    39    57    1
   109    39   221    1
   110    39   222    1
   111    40    50    1
   112    40    55    1
   113    40   223    1
   114    40   224    1
   115    42    43    2
   116    42    46    1
   117    42   372    1
   118    43    53    1
   119    43    62    1
   120    44    49    1
   121    44    58    1
   122    44   225    1
   123    44   226    1
   124    45    51    1
   125    45   227    1
   126    45   228    1
   127    45   229    1
   128    46    59    1
   129    46   230    1
   130    46   231    1
   131    47    58    1
   132    47   232    1
   133    47   233    1
   134    48    55    1
   135    48   234    1
   136    48   235    1
   137    48   236    1
   138    49    62    1
   139    49   237    1
   140    49   238    1
   141    50    52    1
   142    50   239    1
   143    50   240    1
   144    51    52    1
   145    51    57    1
   146    52    64    1
   147    52   241    1
   148    53    58    1
   149    53   242    1
   150    54    56    1
   151    54   243    1
   152    54   244    1
   153    55    57    1
   154    55    59    1
   155    56    59    1
   156    56    60    1
   157    56    62    1
   158    57   245    1
   159    58    61    1
   160    59   246    1
   161    60   247    1
   162    60   248    1
   163    60   249    1
   164    61    65    2
   165    61    66   am
   166    62    63    1
   167    63   250    1
   168    63   251    1
   169    63   252    1
   170    64   253    1
   171    66   100    1
   172    66   373    1
   173    67    74    1
   174    67   254    1
   175    67   255    1
   176    67   256    1
   177    68    74    1
   178    68   257    1
   179    68   258    1
   180    68   259    1
   181    69    84    1
   182    69   260    1
   183    69   261    1
   184    69   262    1
   185    70    74    1
   186    70    86    1
   187    70   263    1
   188    70   264    1
   189    71    74    1
   190    71    80    1
   191    71   265    1
   192    71   266    1
   193    72    87    1
   194    72    90    1
   195    72   267    1
   196    72   268    1
   197    73    83    1
   198    73    88    1
   199    73   269    1
   200    73   270    1
   201    75    76    2
   202    75    79    1
   203    75   271    1
   204    76    86    1
   205    76    95    1
   206    77    82    1
   207    77    91    1
   208    77   272    1
   209    77   273    1
   210    78    84    1
   211    78   274    1
   212    78   275    1
   213    78   276    1
   214    79    92    1
   215    79   277    1
   216    79   278    1
   217    80    91    1
   218    80   279    1
   219    80   280    1
   220    81    88    1
   221    81   281    1
   222    81   282    1
   223    81   283    1
   224    82    95    1
   225    82   284    1
   226    82   285    1
   227    83    85    1
   228    83   286    1
   229    83   287    1
   230    84    85    1
   231    84    90    1
   232    85    97    1
   233    85   288    1
   234    86    91    1
   235    86   289    1
   236    87    89    1
   237    87   290    1
   238    87   291    1
   239    88    90    1
   240    88    92    1
   241    89    92    1
   242    89    93    1
   243    89    95    1
   244    90   292    1
   245    91    94    1
   246    92   293    1
   247    93   294    1
   248    93   295    1
   249    93   296    1
   250    94    98    2
   251    94    99   am
   252    95    96    1
   253    96   297    1
   254    96   298    1
   255    96   299    1
   256    97   300    1
   257    99   141    1
   258    99   348    1
   259   100   101    1
   260   100   301    1
   261   100   302    1
   262   101   102    1
   263   101   303    1
   264   101   304    1
   265   102   103    1
   266   103   104    1
   267   103   305    1
   268   103   306    1
   269   104   105    1
   270   104   307    1
   271   104   308    1
   272   105   106    1
   273   106   107    1
   274   106   309    1
   275   106   310    1
   276   107   108    1
   277   107   311    1
   278   107   312    1
   279   108   109    1
   280   109   110    1
   281   109   313    1
   282   109   314    1
   283   110   111    1
   284   110   315    1
   285   110   316    1
   286   111   112    1
   287   112   113    1
   288   112   317    1
   289   112   318    1
   290   113   114    1
   291   113   319    1
   292   113   320    1
   293   114   115   ar
   294   114   118   ar
   295   115   116   ar
   296   116   117   ar
   297   117   118   ar
   298   117   119    1
   299   118   321    1
   300   119   120    1
   301   119   322    1
   302   119   323    1
   303   120   140    1
   304   120   160    1
   305   121   122    1
   306   121   325    1
   307   121   326    1
   308   122   123    1
   309   122   327    1
   310   122   328    1
   311   123   124    1
   312   124   125    1
   313   124   329    1
   314   124   330    1
   315   125   126    1
   316   125   331    1
   317   125   332    1
   318   126   127    1
   319   127   128    1
   320   127   333    1
   321   127   334    1
   322   128   129    1
   323   128   335    1
   324   128   336    1
   325   129   130    1
   326   130   131    1
   327   130   337    1
   328   130   338    1
   329   131   132    1
   330   131   339    1
   331   131   340    1
   332   132   133    1
   333   133   134    1
   334   133   341    1
   335   133   342    1
   336   134   135    1
   337   134   343    1
   338   134   344    1
   339   135   136   ar
   340   135   139   ar
   341   136   137   ar
   342   137   138   ar
   343   138   139   ar
   344   138   140    1
   345   139   345    1
   346   140   346    1
   347   140   347    1
   348   141   142    1
   349   141   349    1
   350   141   350    1
   351   142   143    1
   352   142   351    1
   353   142   352    1
   354   143   144    1
   355   144   145    1
   356   144   353    1
   357   144   354    1
   358   145   146    1
   359   145   355    1
   360   145   356    1
   361   146   147    1
   362   147   148    1
   363   147   357    1
   364   147   358    1
   365   148   149    1
   366   148   359    1
   367   148   360    1
   368   149   150    1
   369   150   151    1
   370   150   361    1
   371   150   362    1
   372   151   152    1
   373   151   363    1
   374   151   364    1
   375   152   153    1
   376   153   154    1
   377   153   365    1
   378   153   366    1
   379   154   155    1
   380   154   367    1
   381   154   368    1
   382   155   156   ar
   383   155   159   ar
   384   156   157   ar
   385   157   158   ar
   386   158   159   ar
   387   158   160    1
   388   159   369    1
   389   160   370    1
   390   160   371    1
